<?xml version="1.0" encoding="UTF-8"?>

<!-- generated on Tuesday 07 August 2018 10:25:13 PM IST by Netedit Version 0.25.0
<?xml version="1.0" encoding="UTF-8"?>

<configuration xmlns:xsi="http://www.w3.org/2001/XMLSchema-instance" xsi:noNamespaceSchemaLocation="http://sumo.dlr.de/xsd/netedit.exeConfiguration.xsd">

    <output>
        <output-file value="net.net.xml"/>
    </output>

    <processing>
        <no-turnarounds value="true"/>
        <offset.disable-normalization value="true"/>
    </processing>

</configuration>
-->

<net version="0.25" xmlns:xsi="http://www.w3.org/2001/XMLSchema-instance" xsi:noNamespaceSchemaLocation="http://sumo.dlr.de/xsd/net_file.xsd">

    <location netOffset="0.00,0.00" convBoundary="-164.31,-77.22,220.22,108.49" origBoundary="10000000000.00,10000000000.00,-10000000000.00,-10000000000.00" projParameter="!"/>

    <edge id=":gneJ10_0" function="internal">
        <lane id=":gneJ10_0_0" index="0" speed="13.89" length="29.18" shape="-40.88,1.85 -51.65,-0.10 -60.04,-1.03 -66.05,-0.95 -69.67,0.16"/>
    </edge>
    <edge id=":gneJ10_1" function="internal">
        <lane id=":gneJ10_1_0" index="0" speed="13.89" length="31.95" shape="-40.88,1.85 -47.14,0.43 -56.46,-1.91 -65.66,-4.55 -71.55,-6.90"/>
    </edge>
    <edge id=":gneJ10_2" function="internal">
        <lane id=":gneJ10_2_0" index="0" speed="13.89" length="29.96" shape="-40.88,1.85 -52.42,-1.33 -58.56,-5.00 -59.30,-9.17 -54.64,-13.84"/>
    </edge>
    <edge id=":gneJ10_3" function="internal">
        <lane id=":gneJ10_3_0" index="0" speed="13.89" length="38.54" shape="-40.88,1.85 -54.47,-1.59 -58.89,-4.41 -54.14,-6.63 -40.21,-8.25"/>
    </edge>
    <edge id=":gneJ10_4" function="internal">
        <lane id=":gneJ10_4_0" index="0" speed="13.89" length="13.63" shape="-39.98,-4.95 -44.90,-4.38 -46.59,-3.60 -45.02,-2.60 -40.21,-1.38"/>
    </edge>
    <edge id=":gneJ10_5" function="internal">
        <lane id=":gneJ10_5_0" index="0" speed="13.89" length="30.23" shape="-39.98,-4.95 -46.13,-4.40 -55.13,-3.31 -63.97,-1.76 -69.67,0.16"/>
    </edge>
    <edge id=":gneJ10_6" function="internal">
        <lane id=":gneJ10_6_0" index="0" speed="13.89" length="31.78" shape="-39.98,-4.95 -46.42,-4.74 -56.05,-4.80 -65.54,-5.43 -71.55,-6.90"/>
    </edge>
    <edge id=":gneJ10_7" function="internal">
        <lane id=":gneJ10_7_0" index="0" speed="13.89" length="29.68" shape="-39.98,-4.95 -52.62,-4.68 -59.28,-6.07 -59.95,-9.12 -54.64,-13.84"/>
    </edge>
    <edge id=":gneJ10_8" function="internal">
        <lane id=":gneJ10_8_0" index="0" speed="13.89" length="16.85" shape="-52.81,-11.10 -54.37,-9.35 -52.79,-8.29 -48.07,-7.92 -40.21,-8.25"/>
    </edge>
    <edge id=":gneJ10_9" function="internal">
        <lane id=":gneJ10_9_0" index="0" speed="13.89" length="20.66" shape="-52.81,-11.10 -55.08,-8.45 -53.74,-5.94 -48.78,-3.59 -40.21,-1.38"/>
    </edge>
    <edge id=":gneJ10_10" function="internal">
        <lane id=":gneJ10_10_0" index="0" speed="13.89" length="20.27" shape="-52.81,-11.10 -56.61,-8.56 -61.24,-5.47 -65.86,-2.38 -69.67,0.16"/>
    </edge>
    <edge id=":gneJ10_11" function="internal">
        <lane id=":gneJ10_11_0" index="0" speed="13.89" length="11.94" shape="-52.81,-11.10 -58.60,-7.75 -63.54,-5.97"/>
    </edge>
    <edge id=":gneJ10_20" function="internal">
        <lane id=":gneJ10_20_0" index="0" speed="13.89" length="8.24" shape="-63.54,-5.97 -63.66,-5.93 -67.97,-5.65 -71.55,-6.90"/>
    </edge>
    <edge id=":gneJ10_12" function="internal">
        <lane id=":gneJ10_12_0" index="0" speed="13.89" length="16.42" shape="-69.79,-9.70 -67.12,-8.87 -63.70,-9.28 -59.54,-10.94 -54.64,-13.84"/>
    </edge>
    <edge id=":gneJ10_13" function="internal">
        <lane id=":gneJ10_13_0" index="0" speed="13.89" length="29.77" shape="-69.79,-9.70 -64.09,-8.30 -55.29,-7.84 -46.34,-7.95 -40.21,-8.25"/>
    </edge>
    <edge id=":gneJ10_14" function="internal">
        <lane id=":gneJ10_14_0" index="0" speed="13.89" length="30.78" shape="-69.79,-9.70 -64.08,-7.41 -55.25,-4.92 -46.31,-2.73 -40.21,-1.38"/>
    </edge>
    <edge id=":gneJ10_15" function="internal">
        <lane id=":gneJ10_15_0" index="0" speed="13.89" length="12.82" shape="-69.79,-9.70 -66.91,-7.27 -65.93,-4.82 -66.85,-2.34 -69.67,0.16"/>
    </edge>
    <edge id=":gneJ10_16" function="internal">
        <lane id=":gneJ10_16_0" index="0" speed="13.89" length="5.62" shape="-71.50,-2.59 -70.26,-3.68 -69.86,-4.77 -70.29,-5.84 -71.55,-6.90"/>
    </edge>
    <edge id=":gneJ10_17" function="internal">
        <lane id=":gneJ10_17_0" index="0" speed="13.89" length="20.27" shape="-71.50,-2.59 -67.69,-5.12 -63.07,-8.21 -58.44,-11.30 -54.64,-13.84"/>
    </edge>
    <edge id=":gneJ10_18" function="internal">
        <lane id=":gneJ10_18_0" index="0" speed="13.89" length="31.89" shape="-71.50,-2.59 -65.55,-4.59 -56.16,-6.32 -46.62,-7.60 -40.21,-8.25"/>
    </edge>
    <edge id=":gneJ10_19" function="internal">
        <lane id=":gneJ10_19_0" index="0" speed="13.89" length="5.50" shape="-71.50,-2.59 -67.29,-4.01 -66.23,-4.05"/>
    </edge>
    <edge id=":gneJ10_21" function="internal">
        <lane id=":gneJ10_21_0" index="0" speed="13.89" length="26.25" shape="-66.23,-4.05 -60.68,-4.28 -51.65,-3.41 -40.21,-1.38"/>
    </edge>
    <edge id=":gneJ11_0" function="internal">
        <lane id=":gneJ11_0_0" index="0" speed="13.89" length="10.22" shape="-138.27,47.45 -138.42,44.45 -138.67,42.36 -139.12,40.30 -139.85,37.38"/>
    </edge>
    <edge id=":gneJ11_1" function="internal">
        <lane id=":gneJ11_1_0" index="0" speed="13.89" length="4.19" shape="-138.27,47.45 -137.52,44.53 -136.82,43.58"/>
    </edge>
    <edge id=":gneJ11_2" function="internal">
        <lane id=":gneJ11_2_0" index="0" speed="13.89" length="3.63" shape="-138.27,47.45 -137.33,44.70 -136.74,44.27"/>
    </edge>
    <edge id=":gneJ11_12" function="internal">
        <lane id=":gneJ11_12_0" index="0" speed="13.89" length="15.74" shape="-136.82,43.58 -135.08,41.18 -130.95,37.40 -125.15,33.18"/>
    </edge>
    <edge id=":gneJ11_13" function="internal">
        <lane id=":gneJ11_13_0" index="0" speed="13.89" length="15.73" shape="-136.74,44.27 -134.30,42.46 -129.19,40.73 -122.00,39.50"/>
    </edge>
    <edge id=":gneJ11_3" function="internal">
        <lane id=":gneJ11_3_0" index="0" speed="13.89" length="14.66" shape="-121.61,42.78 -127.49,43.66 -131.68,44.71 -134.17,45.94 -134.97,47.34"/>
    </edge>
    <edge id=":gneJ11_4" function="internal">
        <lane id=":gneJ11_4_0" index="0" speed="13.89" length="20.55" shape="-121.61,42.78 -128.90,43.17 -134.37,42.40 -138.02,40.47 -139.85,37.38"/>
    </edge>
    <edge id=":gneJ11_5" function="internal">
        <lane id=":gneJ11_5_0" index="0" speed="13.89" length="24.21" shape="-121.61,42.78 -130.01,43.15 -133.40,41.67 -131.78,38.35 -125.15,33.18"/>
    </edge>
    <edge id=":gneJ11_6" function="internal">
        <lane id=":gneJ11_6_0" index="0" speed="13.89" length="9.02" shape="-123.32,35.92 -125.79,37.85 -126.39,39.09 -125.13,39.64 -122.00,39.50"/>
    </edge>
    <edge id=":gneJ11_7" function="internal">
        <lane id=":gneJ11_7_0" index="0" speed="13.89" length="16.66" shape="-123.32,35.92 -128.46,39.58 -132.12,42.70 -134.29,45.29 -134.97,47.34"/>
    </edge>
    <edge id=":gneJ11_8" function="internal">
        <lane id=":gneJ11_8_0" index="0" speed="13.89" length="19.51" shape="-123.32,35.92 -129.78,39.64 -134.69,41.12 -138.05,40.37 -139.85,37.38"/>
    </edge>
    <edge id=":gneJ11_9" function="internal">
        <lane id=":gneJ11_9_0" index="0" speed="13.89" length="13.14" shape="-136.65,36.58 -135.59,37.74 -133.32,37.56 -129.84,36.04 -125.15,33.18"/>
    </edge>
    <edge id=":gneJ11_10" function="internal">
        <lane id=":gneJ11_10_0" index="0" speed="13.89" length="15.85" shape="-136.65,36.58 -135.31,38.46 -132.42,39.57 -127.98,39.92 -122.00,39.50"/>
    </edge>
    <edge id=":gneJ11_11" function="internal">
        <lane id=":gneJ11_11_0" index="0" speed="13.89" length="10.92" shape="-136.65,36.58 -135.90,39.61 -135.42,41.90 -135.13,44.23 -134.97,47.34"/>
    </edge>
    <edge id=":gneJ12_0" function="internal">
        <lane id=":gneJ12_0_0" index="0" speed="13.89" length="20.11" shape="-120.61,101.39 -127.59,100.67 -132.62,99.00 -135.68,96.37 -136.80,92.79"/>
    </edge>
    <edge id=":gneJ12_1" function="internal">
        <lane id=":gneJ12_1_0" index="0" speed="13.89" length="12.52" shape="-120.61,101.39 -128.59,100.53 -131.61,98.57 -131.14,97.82"/>
    </edge>
    <edge id=":gneJ12_6" function="internal">
        <lane id=":gneJ12_6_0" index="0" speed="13.89" length="10.74" shape="-131.14,97.82 -129.69,95.53 -122.81,91.40"/>
    </edge>
    <edge id=":gneJ12_2" function="internal">
        <lane id=":gneJ12_2_0" index="0" speed="13.89" length="8.72" shape="-121.33,94.35 -123.91,95.90 -124.63,97.04 -123.50,97.77 -120.51,98.10"/>
    </edge>
    <edge id=":gneJ12_3" function="internal">
        <lane id=":gneJ12_3_0" index="0" speed="13.89" length="19.00" shape="-121.33,94.35 -127.98,97.10 -132.78,97.75 -135.72,96.32 -136.80,92.79"/>
    </edge>
    <edge id=":gneJ12_4" function="internal">
        <lane id=":gneJ12_4_0" index="0" speed="13.89" length="12.14" shape="-133.50,92.68 -132.78,94.10 -130.76,94.36 -127.43,93.46 -122.81,91.40"/>
    </edge>
    <edge id=":gneJ12_5" function="internal">
        <lane id=":gneJ12_5_0" index="0" speed="13.89" length="15.16" shape="-133.50,92.68 -132.62,94.90 -130.17,96.55 -126.13,97.61 -120.51,98.10"/>
    </edge>
    <edge id=":gneJ13_0" function="internal">
        <lane id=":gneJ13_0_0" index="0" speed="13.89" length="25.23" shape="163.41,90.72 164.22,99.22 162.92,105.23 159.49,108.75 153.95,109.79"/>
    </edge>
    <edge id=":gneJ13_1" function="internal">
        <lane id=":gneJ13_1_0" index="0" speed="13.89" length="12.05" shape="163.41,90.72 163.93,99.23 161.87,102.09"/>
    </edge>
    <edge id=":gneJ13_2" function="internal">
        <lane id=":gneJ13_2_0" index="0" speed="13.89" length="14.54" shape="163.41,90.72 164.49,100.30 162.84,103.46 161.77,102.67"/>
    </edge>
    <edge id=":gneJ13_12" function="internal">
        <lane id=":gneJ13_12_0" index="0" speed="13.89" length="17.72" shape="161.87,102.09 161.30,102.87 155.50,101.65 146.55,95.55"/>
    </edge>
    <edge id=":gneJ13_13" function="internal">
        <lane id=":gneJ13_13_0" index="0" speed="13.89" length="16.15" shape="161.77,102.67 158.44,100.21 151.31,90.55"/>
    </edge>
    <edge id=":gneJ13_3" function="internal">
        <lane id=":gneJ13_3_0" index="0" speed="13.89" length="13.13" shape="154.06,88.73 157.41,93.38 159.54,95.36 160.46,94.68 160.17,91.35"/>
    </edge>
    <edge id=":gneJ13_4" function="internal">
        <lane id=":gneJ13_4_0" index="0" speed="13.89" length="27.44" shape="154.06,88.73 159.38,98.11 161.14,104.75 159.33,108.64 153.95,109.79"/>
    </edge>
    <edge id=":gneJ13_5" function="internal">
        <lane id=":gneJ13_5_0" index="0" speed="13.89" length="34.86" shape="154.06,88.73 160.48,99.57 161.36,104.32 156.72,102.98 146.55,95.55"/>
    </edge>
    <edge id=":gneJ13_6" function="internal">
        <lane id=":gneJ13_6_0" index="0" speed="13.89" length="12.44" shape="148.63,92.99 152.26,95.64 153.91,96.12 153.60,94.42 151.31,90.55"/>
    </edge>
    <edge id=":gneJ13_7" function="internal">
        <lane id=":gneJ13_7_0" index="0" speed="13.89" length="19.03" shape="148.63,92.99 154.61,97.15 158.53,98.26 160.38,96.33 160.17,91.35"/>
    </edge>
    <edge id=":gneJ13_8" function="internal">
        <lane id=":gneJ13_8_0" index="0" speed="13.89" length="26.69" shape="148.63,92.99 156.97,100.52 160.64,105.84 159.63,108.93 153.95,109.79"/>
    </edge>
    <edge id=":gneJ13_9" function="internal">
        <lane id=":gneJ13_9_0" index="0" speed="13.89" length="16.18" shape="154.05,106.50 155.93,105.88 155.30,103.85 152.18,100.41 146.55,95.55"/>
    </edge>
    <edge id=":gneJ13_10" function="internal">
        <lane id=":gneJ13_10_0" index="0" speed="13.89" length="19.51" shape="154.05,106.50 156.87,105.59 157.34,102.63 155.49,97.62 151.31,90.55"/>
    </edge>
    <edge id=":gneJ13_11" function="internal">
        <lane id=":gneJ13_11_0" index="0" speed="13.89" length="19.10" shape="154.05,106.50 157.84,105.65 160.12,102.85 160.90,98.08 160.17,91.35"/>
    </edge>
    <edge id=":gneJ15_0" function="internal">
        <lane id=":gneJ15_0_0" index="0" speed="13.89" length="14.68" shape="90.37,-1.64 86.99,-6.07 84.01,-8.50 81.44,-8.94 79.28,-7.39"/>
    </edge>
    <edge id=":gneJ15_1" function="internal">
        <lane id=":gneJ15_1_0" index="0" speed="13.89" length="20.22" shape="90.37,-1.64 86.42,-6.84 82.50,-10.48 78.59,-12.55 74.70,-13.06"/>
    </edge>
    <edge id=":gneJ15_2" function="internal">
        <lane id=":gneJ15_2_0" index="0" speed="13.89" length="22.33" shape="90.37,-1.64 87.67,-5.73 84.22,-10.96 80.78,-16.20 78.11,-20.30"/>
    </edge>
    <edge id=":gneJ15_3" function="internal">
        <lane id=":gneJ15_3_0" index="0" speed="13.89" length="10.36" shape="90.37,-1.64 86.80,-8.23 86.21,-11.03"/>
    </edge>
    <edge id=":gneJ15_4" function="internal">
        <lane id=":gneJ15_4_0" index="0" speed="13.89" length="10.72" shape="90.37,-1.64 86.19,-9.09 86.06,-11.26"/>
    </edge>
    <edge id=":gneJ15_30" function="internal">
        <lane id=":gneJ15_30_0" index="0" speed="13.89" length="11.08" shape="86.21,-11.03 85.71,-13.42 87.11,-17.24 91.00,-19.66"/>
    </edge>
    <edge id=":gneJ15_31" function="internal">
        <lane id=":gneJ15_31_0" index="0" speed="13.89" length="13.82" shape="86.06,-11.26 85.97,-12.81 89.70,-12.81 97.38,-9.09"/>
    </edge>
    <edge id=":gneJ15_5" function="internal">
        <lane id=":gneJ15_5_0" index="0" speed="13.89" length="9.12" shape="95.73,-6.23 92.87,-7.61 91.48,-7.61 91.57,-6.23 93.12,-3.46"/>
    </edge>
    <edge id=":gneJ15_6" function="internal">
        <lane id=":gneJ15_6_0" index="0" speed="13.89" length="17.94" shape="95.73,-6.23 90.20,-8.90 85.61,-9.99 81.97,-9.48 79.28,-7.39"/>
    </edge>
    <edge id=":gneJ15_7" function="internal">
        <lane id=":gneJ15_7_0" index="0" speed="13.89" length="22.26" shape="95.73,-6.23 91.32,-8.40 85.46,-10.71 79.48,-12.49 74.70,-13.06"/>
    </edge>
    <edge id=":gneJ15_8" function="internal">
        <lane id=":gneJ15_8_0" index="0" speed="13.89" length="22.65" shape="95.73,-6.23 91.53,-8.89 86.31,-12.63 81.40,-16.69 78.11,-20.30"/>
    </edge>
    <edge id=":gneJ15_9" function="internal">
        <lane id=":gneJ15_9_0" index="0" speed="13.89" length="20.29" shape="95.73,-6.23 89.28,-10.63 86.34,-14.33 86.91,-17.34 91.00,-19.66"/>
    </edge>
    <edge id=":gneJ15_10" function="internal">
        <lane id=":gneJ15_10_0" index="0" speed="13.89" length="11.46" shape="92.05,-16.54 90.60,-15.47 91.00,-13.87 93.26,-11.74 97.38,-9.09"/>
    </edge>
    <edge id=":gneJ15_11" function="internal">
        <lane id=":gneJ15_11_0" index="0" speed="13.89" length="15.19" shape="92.05,-16.54 89.80,-14.93 89.22,-12.22 90.33,-8.40 93.12,-3.46"/>
    </edge>
    <edge id=":gneJ15_12" function="internal">
        <lane id=":gneJ15_12_0" index="0" speed="13.89" length="15.91" shape="92.05,-16.54 88.49,-14.99 85.03,-12.85 81.89,-10.26 79.28,-7.39"/>
    </edge>
    <edge id=":gneJ15_13" function="internal">
        <lane id=":gneJ15_13_0" index="0" speed="13.89" length="17.73" shape="92.05,-16.54 88.04,-15.37 83.47,-14.33 78.85,-13.53 74.70,-13.06"/>
    </edge>
    <edge id=":gneJ15_14" function="internal">
        <lane id=":gneJ15_14_0" index="0" speed="13.89" length="15.70" shape="92.05,-16.54 87.64,-15.58 83.85,-15.88 80.67,-17.46 78.11,-20.30"/>
    </edge>
    <edge id=":gneJ15_15" function="internal">
        <lane id=":gneJ15_15_0" index="0" speed="13.89" length="11.30" shape="80.87,-22.10 82.68,-20.14 84.96,-19.09 87.74,-18.93 91.00,-19.66"/>
    </edge>
    <edge id=":gneJ15_16" function="internal">
        <lane id=":gneJ15_16_0" index="0" speed="13.89" length="21.12" shape="80.87,-22.10 83.99,-18.65 88.52,-14.96 93.36,-11.59 97.38,-9.09"/>
    </edge>
    <edge id=":gneJ15_17" function="internal">
        <lane id=":gneJ15_17_0" index="0" speed="13.89" length="22.30" shape="80.87,-22.10 83.55,-18.00 86.98,-12.77 90.42,-7.54 93.12,-3.46"/>
    </edge>
    <edge id=":gneJ15_18" function="internal">
        <lane id=":gneJ15_18_0" index="0" speed="13.89" length="6.09" shape="80.87,-22.10 82.44,-18.61 82.60,-16.34"/>
    </edge>
    <edge id=":gneJ15_19" function="internal">
        <lane id=":gneJ15_19_0" index="0" speed="13.89" length="5.53" shape="80.87,-22.10 82.49,-18.45 82.22,-16.93"/>
    </edge>
    <edge id=":gneJ15_32" function="internal">
        <lane id=":gneJ15_32_0" index="0" speed="13.89" length="9.77" shape="82.60,-16.34 82.70,-14.99 81.64,-11.25 79.28,-7.39"/>
    </edge>
    <edge id=":gneJ15_33" function="internal">
        <lane id=":gneJ15_33_0" index="0" speed="13.89" length="9.17" shape="82.22,-16.93 82.00,-15.72 79.40,-13.93 74.70,-13.06"/>
    </edge>
    <edge id=":gneJ15_20" function="internal">
        <lane id=":gneJ15_20_0" index="0" speed="13.89" length="7.06" shape="74.47,-16.35 76.92,-16.75 78.34,-17.55 78.74,-18.73 78.11,-20.30"/>
    </edge>
    <edge id=":gneJ15_21" function="internal">
        <lane id=":gneJ15_21_0" index="0" speed="13.89" length="16.89" shape="74.47,-16.35 78.49,-16.79 82.83,-17.54 87.12,-18.52 91.00,-19.66"/>
    </edge>
    <edge id=":gneJ15_22" function="internal">
        <lane id=":gneJ15_22_0" index="0" speed="13.89" length="24.18" shape="74.47,-16.35 79.54,-15.72 86.17,-13.79 92.67,-11.33 97.38,-9.09"/>
    </edge>
    <edge id=":gneJ15_23" function="internal">
        <lane id=":gneJ15_23_0" index="0" speed="13.89" length="23.70" shape="74.47,-16.35 79.26,-15.80 83.97,-13.47 88.59,-9.36 93.12,-3.46"/>
    </edge>
    <edge id=":gneJ15_24" function="internal">
        <lane id=":gneJ15_24_0" index="0" speed="13.89" length="15.72" shape="74.47,-16.35 79.41,-16.12 81.86,-14.55 81.82,-11.64 79.28,-7.39"/>
    </edge>
    <edge id=":gneJ15_25" function="internal">
        <lane id=":gneJ15_25_0" index="0" speed="13.89" length="6.41" shape="76.66,-9.40 77.70,-11.14 77.72,-12.32 76.72,-12.96 74.70,-13.06"/>
    </edge>
    <edge id=":gneJ15_26" function="internal">
        <lane id=":gneJ15_26_0" index="0" speed="13.89" length="11.78" shape="76.66,-9.40 78.48,-12.33 79.33,-15.13 79.21,-17.78 78.11,-20.30"/>
    </edge>
    <edge id=":gneJ15_27" function="internal">
        <lane id=":gneJ15_27_0" index="0" speed="13.89" length="17.80" shape="76.66,-9.40 79.52,-12.45 83.20,-15.42 87.19,-17.94 91.00,-19.66"/>
    </edge>
    <edge id=":gneJ15_28" function="internal">
        <lane id=":gneJ15_28_0" index="0" speed="13.89" length="22.71" shape="76.66,-9.40 80.29,-12.41 84.95,-13.36 90.65,-12.25 97.38,-9.09"/>
    </edge>
    <edge id=":gneJ15_29" function="internal">
        <lane id=":gneJ15_29_0" index="0" speed="13.89" length="21.25" shape="76.66,-9.40 80.22,-12.31 84.15,-12.29 88.45,-9.34 93.12,-3.46"/>
    </edge>
    <edge id=":gneJ16_0" function="internal">
        <lane id=":gneJ16_0_0" index="0" speed="13.89" length="19.40" shape="-163.58,-57.55 -163.95,-62.52 -162.24,-66.16 -158.45,-68.48 -152.58,-69.47"/>
    </edge>
    <edge id=":gneJ16_1" function="internal">
        <lane id=":gneJ16_1_0" index="0" speed="13.89" length="10.73" shape="-163.58,-57.55 -164.20,-62.83 -162.71,-65.40 -160.26,-65.29"/>
    </edge>
    <edge id=":gneJ16_6" function="internal">
        <lane id=":gneJ16_6_0" index="0" speed="13.89" length="7.52" shape="-160.26,-65.29 -159.12,-65.24 -153.42,-62.35"/>
    </edge>
    <edge id=":gneJ16_2" function="internal">
        <lane id=":gneJ16_2_0" index="0" speed="13.89" length="8.23" shape="-155.18,-59.56 -157.96,-61.03 -159.75,-61.31 -160.56,-60.42 -160.38,-58.35"/>
    </edge>
    <edge id=":gneJ16_3" function="internal">
        <lane id=":gneJ16_3_0" index="0" speed="13.89" length="19.78" shape="-155.18,-59.56 -160.44,-63.59 -161.75,-66.58 -159.13,-68.54 -152.58,-69.47"/>
    </edge>
    <edge id=":gneJ16_4" function="internal">
        <lane id=":gneJ16_4_0" index="0" speed="13.89" length="7.63" shape="-152.42,-66.18 -154.95,-65.82 -155.96,-65.06 -155.45,-63.91 -153.42,-62.35"/>
    </edge>
    <edge id=":gneJ16_5" function="internal">
        <lane id=":gneJ16_5_0" index="0" speed="13.89" length="13.30" shape="-152.42,-66.18 -156.59,-65.51 -159.31,-63.98 -160.57,-61.60 -160.38,-58.35"/>
    </edge>
    <edge id=":gneJ17_0" function="internal">
        <lane id=":gneJ17_0_0" index="0" speed="13.89" length="14.75" shape="46.25,-69.44 44.09,-71.44 41.18,-71.95 37.52,-70.97 33.10,-68.51"/>
    </edge>
    <edge id=":gneJ17_1" function="internal">
        <lane id=":gneJ17_1_0" index="0" speed="13.89" length="17.86" shape="46.25,-69.44 43.76,-72.07 40.22,-73.86 35.65,-74.82 30.05,-74.94"/>
    </edge>
    <edge id=":gneJ17_2" function="internal">
        <lane id=":gneJ17_2_0" index="0" speed="13.89" length="15.02" shape="46.25,-69.44 44.21,-73.64 44.40,-76.48 46.83,-77.97 51.49,-78.11"/>
    </edge>
    <edge id=":gneJ17_3" function="internal">
        <lane id=":gneJ17_3_0" index="0" speed="13.89" length="6.21" shape="51.18,-74.82 49.26,-74.76 48.25,-74.15 48.17,-72.97 49.02,-71.24"/>
    </edge>
    <edge id=":gneJ17_4" function="internal">
        <lane id=":gneJ17_4_0" index="0" speed="13.89" length="19.38" shape="51.18,-74.82 46.84,-74.42 41.83,-72.88 36.98,-70.73 33.10,-68.51"/>
    </edge>
    <edge id=":gneJ17_5" function="internal">
        <lane id=":gneJ17_5_0" index="0" speed="13.89" length="21.15" shape="51.18,-74.82 46.48,-75.07 40.62,-75.14 34.76,-75.09 30.05,-74.94"/>
    </edge>
    <edge id=":gneJ17_6" function="internal">
        <lane id=":gneJ17_6_0" index="0" speed="13.89" length="21.61" shape="29.89,-78.24 34.67,-78.38 40.69,-78.44 46.72,-78.36 51.49,-78.11"/>
    </edge>
    <edge id=":gneJ17_7" function="internal">
        <lane id=":gneJ17_7_0" index="0" speed="13.89" length="12.21" shape="29.89,-78.24 36.39,-78.05 41.75,-76.83 41.93,-76.73"/>
    </edge>
    <edge id=":gneJ17_8" function="internal">
        <lane id=":gneJ17_8_0" index="0" speed="13.89" length="9.89" shape="29.89,-78.24 37.27,-77.97 39.44,-76.73"/>
    </edge>
    <edge id=":gneJ17_12" function="internal">
        <lane id=":gneJ17_12_0" index="0" speed="13.89" length="9.09" shape="41.93,-76.73 45.95,-74.56 49.02,-71.24"/>
    </edge>
    <edge id=":gneJ17_13" function="internal">
        <lane id=":gneJ17_13_0" index="0" speed="13.89" length="11.78" shape="39.44,-76.73 40.26,-76.26 38.87,-73.11 33.10,-68.51"/>
    </edge>
    <edge id=":gneJ17_9" function="internal">
        <lane id=":gneJ17_9_0" index="0" speed="13.89" length="8.22" shape="31.26,-71.25 33.45,-73.00 33.98,-74.19 32.85,-74.84 30.05,-74.94"/>
    </edge>
    <edge id=":gneJ17_10" function="internal">
        <lane id=":gneJ17_10_0" index="0" speed="13.89" length="21.56" shape="31.26,-71.25 35.48,-73.56 41.07,-75.89 46.81,-77.62 51.49,-78.11"/>
    </edge>
    <edge id=":gneJ17_11" function="internal">
        <lane id=":gneJ17_11_0" index="0" speed="13.89" length="20.06" shape="31.26,-71.25 37.02,-74.35 41.89,-75.38 45.89,-74.35 49.02,-71.24"/>
    </edge>
    <edge id=":gneJ18_0" function="internal">
        <lane id=":gneJ18_0_0" index="0" speed="13.89" length="14.93" shape="216.89,-55.01 215.98,-56.32 213.37,-56.60 209.04,-55.83 202.99,-54.02"/>
    </edge>
    <edge id=":gneJ18_1" function="internal">
        <lane id=":gneJ18_1_0" index="0" speed="13.89" length="17.32" shape="216.89,-55.01 215.88,-57.04 212.98,-58.70 208.19,-59.97 201.50,-60.87"/>
    </edge>
    <edge id=":gneJ18_2" function="internal">
        <lane id=":gneJ18_2_0" index="0" speed="13.89" length="21.99" shape="201.80,-64.16 209.78,-62.96 215.50,-61.05 218.97,-58.42 220.18,-55.09"/>
    </edge>
    <edge id=":gneJ18_3" function="internal">
        <lane id=":gneJ18_3_0" index="0" speed="13.89" length="13.96" shape="201.80,-64.16 211.06,-62.67 214.34,-60.49 213.90,-60.02"/>
    </edge>
    <edge id=":gneJ18_6" function="internal">
        <lane id=":gneJ18_6_0" index="0" speed="13.89" length="12.67" shape="213.90,-60.02 211.65,-57.60 202.99,-54.02"/>
    </edge>
    <edge id=":gneJ18_4" function="internal">
        <lane id=":gneJ18_4_0" index="0" speed="13.89" length="9.79" shape="201.93,-57.14 205.12,-58.46 206.11,-59.52 204.90,-60.33 201.50,-60.87"/>
    </edge>
    <edge id=":gneJ18_5" function="internal">
        <lane id=":gneJ18_5_0" index="0" speed="13.89" length="21.02" shape="201.93,-57.14 209.84,-59.30 215.52,-59.68 218.97,-58.28 220.18,-55.09"/>
    </edge>
    <edge id=":gneJ19_0" function="internal">
        <lane id=":gneJ19_0_0" index="0" speed="13.89" length="7.27" shape="221.80,9.54 221.58,11.49 220.80,12.97 219.47,13.98 217.58,14.52"/>
    </edge>
    <edge id=":gneJ19_1" function="internal">
        <lane id=":gneJ19_1_0" index="0" speed="13.89" length="2.37" shape="217.12,11.25 217.74,11.07 218.17,10.74 218.43,10.26 218.50,9.62"/>
    </edge>
    <edge id=":gneJ20_0" function="internal">
        <lane id=":gneJ20_0_0" index="0" speed="13.89" length="6.03" shape="147.92,27.60 147.46,25.73 146.85,24.25 146.10,23.13 145.21,22.39"/>
    </edge>
    <edge id=":gneJ20_1" function="internal">
        <lane id=":gneJ20_1_0" index="0" speed="13.89" length="10.59" shape="147.92,27.60 147.79,24.68 148.63,22.46 150.46,20.95 153.26,20.14"/>
    </edge>
    <edge id=":gneJ20_2" function="internal">
        <lane id=":gneJ20_2_0" index="0" speed="13.89" length="5.06" shape="153.72,23.41 152.37,23.79 151.50,24.52 151.10,25.58 151.16,26.97"/>
    </edge>
    <edge id=":gneJ20_3" function="internal">
        <lane id=":gneJ20_3_0" index="0" speed="13.89" length="8.57" shape="153.72,23.41 145.21,22.39"/>
    </edge>
    <edge id=":gneJ20_4" function="internal">
        <lane id=":gneJ20_4_0" index="0" speed="13.89" length="6.43" shape="146.86,19.53 153.26,20.14"/>
    </edge>
    <edge id=":gneJ20_5" function="internal">
        <lane id=":gneJ20_5_0" index="0" speed="13.89" length="2.51" shape="146.86,19.53 148.34,20.70 148.71,21.19"/>
    </edge>
    <edge id=":gneJ20_6" function="internal">
        <lane id=":gneJ20_6_0" index="0" speed="13.89" length="6.35" shape="148.71,21.19 149.55,22.33 150.49,24.42 151.16,26.97"/>
    </edge>
    <edge id=":gneJ7_0" function="internal">
        <lane id=":gneJ7_0_0" index="0" speed="13.89" length="10.80" shape="-53.09,67.91 -56.86,66.44 -59.84,65.53 -62.03,65.18 -63.43,65.40"/>
    </edge>
    <edge id=":gneJ7_1" function="internal">
        <lane id=":gneJ7_1_0" index="0" speed="13.89" length="17.11" shape="-53.09,67.91 -57.92,65.23 -59.49,62.63 -57.79,60.12 -52.82,57.70"/>
    </edge>
    <edge id=":gneJ7_2" function="internal">
        <lane id=":gneJ7_2_0" index="0" speed="13.89" length="6.82" shape="-51.70,60.80 -53.68,61.77 -54.36,62.77 -53.73,63.80 -51.81,64.87"/>
    </edge>
    <edge id=":gneJ7_3" function="internal">
        <lane id=":gneJ7_3_0" index="0" speed="13.89" length="12.61" shape="-51.70,60.80 -54.89,61.92 -57.65,62.90 -60.37,63.98 -63.43,65.40"/>
    </edge>
    <edge id=":gneJ7_4" function="internal">
        <lane id=":gneJ7_4_0" index="0" speed="13.89" length="12.99" shape="-64.90,62.45 -61.79,61.00 -58.95,59.87 -56.07,58.84 -52.82,57.70"/>
    </edge>
    <edge id=":gneJ7_5" function="internal">
        <lane id=":gneJ7_5_0" index="0" speed="13.89" length="4.76" shape="-64.90,62.45 -62.83,61.97 -60.21,62.19"/>
    </edge>
    <edge id=":gneJ7_6" function="internal">
        <lane id=":gneJ7_6_0" index="0" speed="13.89" length="8.84" shape="-60.21,62.19 -59.95,62.21 -56.28,63.18 -51.81,64.87"/>
    </edge>
    <edge id=":gneJ8_0" function="internal">
        <lane id=":gneJ8_0_0" index="0" speed="13.89" length="12.69" shape="58.67,24.35 57.16,24.07 55.03,25.14 52.28,27.59 48.92,31.41"/>
    </edge>
    <edge id=":gneJ8_1" function="internal">
        <lane id=":gneJ8_1_0" index="0" speed="13.89" length="31.24" shape="58.67,24.35 55.68,23.92 49.67,25.01 40.65,27.62 28.62,31.76"/>
    </edge>
    <edge id=":gneJ8_2" function="internal">
        <lane id=":gneJ8_2_0" index="0" speed="13.89" length="32.20" shape="58.67,24.35 55.49,23.46 49.10,23.30 39.50,23.89 26.68,25.22"/>
    </edge>
    <edge id=":gneJ8_3" function="internal">
        <lane id=":gneJ8_3_0" index="0" speed="13.89" length="25.23" shape="58.67,24.35 53.95,22.08 46.98,20.05 39.82,18.43 34.53,17.36"/>
    </edge>
    <edge id=":gneJ8_4" function="internal">
        <lane id=":gneJ8_4_0" index="0" speed="13.89" length="10.25" shape="58.67,24.35 56.75,22.30 55.92,20.11 56.20,17.81 57.57,15.38"/>
    </edge>
    <edge id=":gneJ8_5" function="internal">
        <lane id=":gneJ8_5_0" index="0" speed="13.89" length="5.02" shape="60.18,17.40 59.52,18.58 59.39,19.71 59.80,20.78 60.74,21.79"/>
    </edge>
    <edge id=":gneJ8_6" function="internal">
        <lane id=":gneJ8_6_0" index="0" speed="13.89" length="17.98" shape="60.18,17.40 57.58,20.71 54.59,24.43 51.58,28.14 48.92,31.41"/>
    </edge>
    <edge id=":gneJ8_7" function="internal">
        <lane id=":gneJ8_7_0" index="0" speed="13.89" length="34.79" shape="60.18,17.40 54.62,21.07 45.02,25.42 35.10,29.35 28.62,31.76"/>
    </edge>
    <edge id=":gneJ8_8" function="internal">
        <lane id=":gneJ8_8_0" index="0" speed="13.89" length="4.57" shape="60.18,17.40 56.86,19.48 56.24,19.67"/>
    </edge>
    <edge id=":gneJ8_9" function="internal">
        <lane id=":gneJ8_9_0" index="0" speed="13.89" length="4.00" shape="60.18,17.40 57.27,19.09 56.64,19.16"/>
    </edge>
    <edge id=":gneJ8_30" function="internal">
        <lane id=":gneJ8_30_0" index="0" speed="13.89" length="30.13" shape="56.24,19.67 50.17,21.48 40.11,23.39 26.68,25.22"/>
    </edge>
    <edge id=":gneJ8_31" function="internal">