<?xml version="1.0" encoding="UTF-8"?>

<!-- generated on Fri Nov 23 04:00:47 2018 by SUMO netconvert Version 0.25.0
<?xml version="1.0" encoding="UTF-8"?>

<configuration xmlns:xsi="http://www.w3.org/2001/XMLSchema-instance" xsi:noNamespaceSchemaLocation="http://sumo.dlr.de/xsd/netconvertConfiguration.xsd">

    <input>
        <node-files value="grid.nod.xml"/>
        <edge-files value="grid.edg.xml"/>
    </input>

    <output>
        <output-file value="net.net.xml"/>
    </output>

</configuration>
-->

<net version="0.25" xmlns:xsi="http://www.w3.org/2001/XMLSchema-instance" xsi:noNamespaceSchemaLocation="http://sumo.dlr.de/xsd/net_file.xsd">

    <location netOffset="0.00,0.00" convBoundary="0.00,0.00,200.00,200.00" origBoundary="0.00,0.00,200.00,200.00" projParameter="!"/>

    <edge id=":0_0" function="internal">
        <lane id=":0_0_0" index="0" speed="13.90" length="7.90" shape="-1.65,3.25 -1.34,1.11 -0.43,-0.43 1.11,-1.34 3.25,-1.65"/>
    </edge>
    <edge id=":0_1" function="internal">
        <lane id=":0_1_0" index="0" speed="13.90" length="2.80" shape="-1.65,3.25 -0.83,2.01 0.00,1.60 0.35,1.77"/>
    </edge>
    <edge id=":0_4" function="internal">
        <lane id=":0_4_0" index="0" speed="13.90" length="2.02" shape="0.35,1.77 0.83,2.01 1.65,3.25"/>
    </edge>
    <edge id=":0_2" function="internal">
        <lane id=":0_2_0" index="0" speed="13.90" length="2.58" shape="3.25,1.65 2.55,1.75 2.05,2.05 1.75,2.55 1.65,3.25"/>
    </edge>
    <edge id=":0_3" function="internal">
        <lane id=":0_3_0" index="0" speed="13.90" length="2.20" shape="3.25,1.65 2.01,0.83 1.69,0.19"/>
    </edge>
    <edge id=":0_5" function="internal">
        <lane id=":0_5_0" index="0" speed="13.90" length="2.62" shape="1.69,0.19 1.60,0.00 2.01,-0.83 3.25,-1.65"/>
    </edge>
    <edge id=":1_0" function="internal">
        <lane id=":1_0_0" index="0" speed="13.90" length="5.00" shape="98.35,4.75 98.16,3.39 97.57,2.43 96.61,1.84 95.25,1.65"/>
    </edge>
    <edge id=":1_1" function="internal">
        <lane id=":1_1_0" index="0" speed="13.90" length="10.32" shape="98.35,4.75 98.75,1.95 99.95,-0.05 101.95,-1.25 104.75,-1.65"/>
    </edge>
    <edge id=":1_2" function="internal">
        <lane id=":1_2_0" index="0" speed="13.90" length="4.82" shape="98.35,4.75 99.18,3.51 100.00,3.10 100.83,3.51 101.65,4.75"/>
    </edge>
    <edge id=":1_3" function="internal">
        <lane id=":1_3_0" index="0" speed="13.90" length="5.00" shape="104.75,1.65 103.39,1.84 102.43,2.43 101.84,3.39 101.65,4.75"/>
    </edge>
    <edge id=":1_4" function="internal">
        <lane id=":1_4_0" index="0" speed="13.90" length="9.50" shape="104.75,1.65 95.25,1.65"/>
    </edge>
    <edge id=":1_5" function="internal">
        <lane id=":1_5_0" index="0" speed="13.90" length="2.41" shape="104.75,1.65 103.51,0.83 103.10,0.00"/>
    </edge>
    <edge id=":1_9" function="internal">
        <lane id=":1_9_0" index="0" speed="13.90" length="2.41" shape="103.10,0.00 103.51,-0.83 104.75,-1.65"/>
    </edge>
    <edge id=":1_6" function="internal">
        <lane id=":1_6_0" index="0" speed="13.90" length="9.50" shape="95.25,-1.65 104.75,-1.65"/>
    </edge>
    <edge id=":1_7" function="internal">
        <lane id=":1_7_0" index="0" speed="13.90" length="5.28" shape="95.25,-1.65 98.05,-1.25 100.05,-0.05 100.11,0.05"/>
    </edge>
    <edge id=":1_8" function="internal">
        <lane id=":1_8_0" index="0" speed="13.90" length="2.41" shape="95.25,-1.65 96.49,-0.83 96.90,0.00"/>
    </edge>
    <edge id=":1_10" function="internal">
        <lane id=":1_10_0" index="0" speed="13.90" length="5.04" shape="100.11,0.05 101.25,1.95 101.65,4.75"/>
    </edge>
    <edge id=":1_11" function="internal">
        <lane id=":1_11_0" index="0" speed="13.90" length="2.41" shape="96.90,0.00 96.49,0.83 95.25,1.65"/>
    </edge>
    <edge id=":2_0" function="internal">
        <lane id=":2_0_0" index="0" speed="13.90" length="2.58" shape="198.35,3.25 198.25,2.55 197.95,2.05 197.45,1.75 196.75,1.65"/>
    </edge>
    <edge id=":2_1" function="internal">
        <lane id=":2_1_0" index="0" speed="13.90" length="2.20" shape="198.35,3.25 199.17,2.01 199.81,1.69"/>
    </edge>
    <edge id=":2_4" function="internal">
        <lane id=":2_4_0" index="0" speed="13.90" length="2.62" shape="199.81,1.69 200.00,1.60 200.82,2.01 201.65,3.25"/>
    </edge>
    <edge id=":2_2" function="internal">
        <lane id=":2_2_0" index="0" speed="13.90" length="7.90" shape="196.75,-1.65 198.89,-1.34 200.42,-0.43 201.34,1.11 201.65,3.25"/>
    </edge>
    <edge id=":2_3" function="internal">
        <lane id=":2_3_0" index="0" speed="13.90" length="2.80" shape="196.75,-1.65 197.99,-0.83 198.40,0.00 198.23,0.35"/>
    </edge>
    <edge id=":2_5" function="internal">
        <lane id=":2_5_0" index="0" speed="13.90" length="2.02" shape="198.23,0.35 197.99,0.83 196.75,1.65"/>
    </edge>
    <edge id=":3_0" function="internal">
        <lane id=":3_0_0" index="0" speed="13.90" length="9.50" shape="-1.65,104.75 -1.65,95.25"/>
    </edge>
    <edge id=":3_1" function="internal">
        <lane id=":3_1_0" index="0" speed="13.90" length="5.28" shape="-1.65,104.75 -1.25,101.95 -0.05,99.95 0.05,99.89"/>
    </edge>
    <edge id=":3_2" function="internal">
        <lane id=":3_2_0" index="0" speed="13.90" length="2.41" shape="-1.65,104.75 -0.83,103.51 0.00,103.10"/>
    </edge>
    <edge id=":3_9" function="internal">
        <lane id=":3_9_0" index="0" speed="13.90" length="5.04" shape="0.05,99.89 1.95,98.75 4.75,98.35"/>
    </edge>
    <edge id=":3_10" function="internal">
        <lane id=":3_10_0" index="0" speed="13.90" length="2.41" shape="0.00,103.10 0.83,103.51 1.65,104.75"/>
    </edge>
    <edge id=":3_3" function="internal">
        <lane id=":3_3_0" index="0" speed="13.90" length="5.00" shape="4.75,101.65 3.39,101.84 2.43,102.43 1.84,103.39 1.65,104.75"/>
    </edge>
    <edge id=":3_4" function="internal">
        <lane id=":3_4_0" index="0" speed="13.90" length="10.32" shape="4.75,101.65 1.95,101.25 -0.05,100.05 -1.25,98.05 -1.65,95.25"/>
    </edge>
    <edge id=":3_5" function="internal">
        <lane id=":3_5_0" index="0" speed="13.90" length="4.82" shape="4.75,101.65 3.51,100.82 3.10,100.00 3.51,99.17 4.75,98.35"/>
    </edge>
    <edge id=":3_6" function="internal">
        <lane id=":3_6_0" index="0" speed="13.90" length="5.00" shape="1.65,95.25 1.84,96.61 2.43,97.57 3.39,98.16 4.75,98.35"/>
    </edge>
    <edge id=":3_7" function="internal">
        <lane id=":3_7_0" index="0" speed="13.90" length="9.50" shape="1.65,95.25 1.65,104.75"/>
    </edge>
    <edge id=":3_8" function="internal">
        <lane id=":3_8_0" index="0" speed="13.90" length="2.41" shape="1.65,95.25 0.83,96.49 0.00,96.90"/>
    </edge>
    <edge id=":3_11" function="internal">
        <lane id=":3_11_0" index="0" speed="13.90" length="2.41" shape="0.00,96.90 -0.83,96.49 -1.65,95.25"/>
    </edge>
    <edge id=":4_0" function="internal">
        <lane id=":4_0_0" index="0" speed="13.90" length="5.00" shape="98.35,104.75 98.16,103.39 97.57,102.43 96.61,101.84 95.25,101.65"/>
    </edge>
    <edge id=":4_1" function="internal">
        <lane id=":4_1_0" index="0" speed="13.90" length="9.50" shape="98.35,104.75 98.35,95.25"/>
    </edge>
    <edge id=":4_2" function="internal">
        <lane id=":4_2_0" index="0" speed="13.90" length="5.28" shape="98.35,104.75 98.75,101.95 99.95,99.95 100.05,99.89"/>
    </edge>
    <edge id=":4_3" function="internal">
        <lane id=":4_3_0" index="0" speed="13.90" length="2.41" shape="98.35,104.75 99.18,103.51 100.00,103.10"/>
    </edge>
    <edge id=":4_16" function="internal">
        <lane id=":4_16_0" index="0" speed="13.90" length="5.04" shape="100.05,99.89 101.95,98.75 104.75,98.35"/>
    </edge>
    <edge id=":4_17" function="internal">
        <lane id=":4_17_0" index="0" speed="13.90" length="2.41" shape="100.00,103.10 100.83,103.51 101.65,104.75"/>
    </edge>
    <edge id=":4_4" function="internal">
        <lane id=":4_4_0" index="0" speed="13.90" length="5.00" shape="104.75,101.65 103.39,101.84 102.43,102.43 101.84,103.39 101.65,104.75"/>
    </edge>
    <edge id=":4_5" function="internal">
        <lane id=":4_5_0" index="0" speed="13.90" length="9.50" shape="104.75,101.65 95.25,101.65"/>
    </edge>
    <edge id=":4_6" function="internal">
        <lane id=":4_6_0" index="0" speed="13.90" length="10.32" shape="104.75,101.65 101.95,101.25 99.95,100.05 98.75,98.05 98.35,95.25"/>
    </edge>
    <edge id=":4_7" function="internal">
        <lane id=":4_7_0" index="0" speed="13.90" length="4.82" shape="104.75,101.65 103.51,100.82 103.10,100.00 103.51,99.17 104.75,98.35"/>
    </edge>
    <edge id=":4_8" function="internal">
        <lane id=":4_8_0" index="0" speed="13.90" length="5.00" shape="101.65,95.25 101.84,96.61 102.43,97.57 103.39,98.16 104.75,98.35"/>
    </edge>
    <edge id=":4_9" function="internal">
        <lane id=":4_9_0" index="0" speed="13.90" length="9.50" shape="101.65,95.25 101.65,104.75"/>
    </edge>
    <edge id=":4_10" function="internal">
        <lane id=":4_10_0" index="0" speed="13.90" length="5.28" shape="101.65,95.25 101.25,98.05 100.05,100.05 99.95,100.11"/>
    </edge>
    <edge id=":4_11" function="internal">
        <lane id=":4_11_0" index="0" speed="13.90" length="2.41" shape="101.65,95.25 100.82,96.49 100.00,96.90"/>
    </edge>
    <edge id=":4_18" function="internal">
        <lane id=":4_18_0" index="0" speed="13.90" length="5.04" shape="99.95,100.11 98.05,101.25 95.25,101.65"/>
    </edge>
    <edge id=":4_19" function="internal">
        <lane id=":4_19_0" index="0" speed="13.90" length="2.41" shape="100.00,96.90 99.17,96.49 98.35,95.25"/>
    </edge>
    <edge id=":4_12" function="internal">
        <lane id=":4_12_0" index="0" speed="13.90" length="5.00" shape="95.25,98.35 96.61,98.16 97.57,97.57 98.16,96.61 98.35,95.25"/>
    </edge>
    <edge id=":4_13" function="internal">
        <lane id=":4_13_0" index="0" speed="13.90" length="9.50" shape="95.25,98.35 104.75,98.35"/>
    </edge>
    <edge id=":4_14" function="internal">
        <lane id=":4_14_0" index="0" speed="13.90" length="10.32" shape="95.25,98.35 98.05,98.75 100.05,99.95 101.25,101.95 101.65,104.75"/>
    </edge>
    <edge id=":4_15" function="internal">
        <lane id=":4_15_0" index="0" speed="13.90" length="4.82" shape="95.25,98.35 96.49,99.18 96.90,100.00 96.49,100.83 95.25,101.65"/>
    </edge>
    <edge id=":5_0" function="internal">
        <lane id=":5_0_0" index="0" speed="13.90" length="5.00" shape="198.35,104.75 198.16,103.39 197.57,102.43 196.61,101.84 195.25,101.65"/>
    </edge>
    <edge id=":5_1" function="internal">
        <lane id=":5_1_0" index="0" speed="13.90" length="9.50" shape="198.35,104.75 198.35,95.25"/>
    </edge>
    <edge id=":5_2" function="internal">
        <lane id=":5_2_0" index="0" speed="13.90" length="2.41" shape="198.35,104.75 199.17,103.51 200.00,103.10"/>
    </edge>
    <edge id=":5_9" function="internal">
        <lane id=":5_9_0" index="0" speed="13.90" length="2.41" shape="200.00,103.10 200.82,103.51 201.65,104.75"/>
    </edge>
    <edge id=":5_3" function="internal">
        <lane id=":5_3_0" index="0" speed="13.90" length="9.50" shape="201.65,95.25 201.65,104.75"/>
    </edge>
    <edge id=":5_4" function="internal">
        <lane id=":5_4_0" index="0" speed="13.90" length="5.28" shape="201.65,95.25 201.25,98.05 200.05,100.05 199.95,100.11"/>
    </edge>
    <edge id=":5_5" function="internal">
        <lane id=":5_5_0" index="0" speed="13.90" length="2.41" shape="201.65,95.25 200.83,96.49 200.00,96.90"/>
    </edge>
    <edge id=":5_10" function="internal">
        <lane id=":5_10_0" index="0" speed="13.90" length="5.04" shape="199.95,100.11 198.05,101.25 195.25,101.65"/>
    </edge>
    <edge id=":5_11" function="internal">
        <lane id=":5_11_0" index="0" speed="13.90" length="2.41" shape="200.00,96.90 199.18,96.49 198.35,95.25"/>
    </edge>
    <edge id=":5_6" function="internal">
        <lane id=":5_6_0" index="0" speed="13.90" length="5.00" shape="195.25,98.35 196.61,98.16 197.57,97.57 198.16,96.61 198.35,95.25"/>
    </edge>
    <edge id=":5_7" function="internal">
        <lane id=":5_7_0" index="0" speed="13.90" length="10.32" shape="195.25,98.35 198.05,98.75 200.05,99.95 201.25,101.95 201.65,104.75"/>
    </edge>
    <edge id=":5_8" function="internal">
        <lane id=":5_8_0" index="0" speed="13.90" length="4.82" shape="195.25,98.35 196.49,99.18 196.90,100.00 196.49,100.83 195.25,101.65"/>
    </edge>
    <edge id=":6_0" function="internal">
        <lane id=":6_0_0" index="0" speed="13.90" length="7.90" shape="3.25,201.65 1.11,201.34 -0.43,200.43 -1.34,198.89 -1.65,196.75"/>
    </edge>
    <edge id=":6_1" function="internal">
        <lane id=":6_1_0" index="0" speed="13.90" length="2.80" shape="3.25,201.65 2.01,200.83 1.60,200.00 1.77,199.65"/>
    </edge>
    <edge id=":6_4" function="internal">
        <lane id=":6_4_0" index="0" speed="13.90" length="2.02" shape="1.77,199.65 2.01,199.18 3.25,198.35"/>
    </edge>
    <edge id=":6_2" function="internal">
        <lane id=":6_2_0" index="0" speed="13.90" length="2.58" shape="1.65,196.75 1.75,197.45 2.05,197.95 2.55,198.25 3.25,198.35"/>
    </edge>
    <edge id=":6_3" function="internal">
        <lane id=":6_3_0" index="0" speed="13.90" length="2.20" shape="1.65,196.75 0.83,197.99 0.19,198.31"/>
    </edge>
    <edge id=":6_5" function="internal">
        <lane id=":6_5_0" index="0" speed="13.90" length="2.62" shape="0.19,198.31 0.00,198.40 -0.83,197.99 -1.65,196.75"/>
    </edge>
    <edge id=":7_0" function="internal">
        <lane id=":7_0_0" index="0" speed="13.90" length="9.50" shape="104.75,201.65 95.25,201.65"/>
    </edge>
    <edge id=":7_1" function="internal">
        <lane id=":7_1_0" index="0" speed="13.90" length="5.28" shape="104.75,201.65 101.95,201.25 99.95,200.05 99.89,199.95"/>
    </edge>
    <edge id=":7_2" function="internal">
        <lane id=":7_2_0" index="0" speed="13.90" length="2.41" shape="104.75,201.65 103.51,200.83 103.10,200.00"/>
    </edge>
    <edge id=":7_9" function="internal">
        <lane id=":7_9_0" index="0" speed="13.90" length="5.04" shape="99.89,199.95 98.75,198.05 98.35,195.25"/>
    </edge>
    <edge id=":7_10" function="internal">
        <lane id=":7_10_0" index="0" speed="13.90" length="2.41" shape="103.10,200.00 103.51,199.18 104.75,198.35"/>
    </edge>
    <edge id=":7_3" function="internal">
        <lane id=":7_3_0" index="0" speed="13.90" length="5.00" shape="101.65,195.25 101.84,196.61 102.43,197.57 103.39,198.16 104.75,198.35"/>
    </edge>
    <edge id=":7_4" function="internal">
        <lane id=":7_4_0" index="0" speed="13.90" length="10.32" shape="101.65,195.25 101.25,198.05 100.05,200.05 98.05,201.25 95.25,201.65"/>
    </edge>
    <edge id=":7_5" function="internal">
        <lane id=":7_5_0" index="0" speed="13.90" length="4.82" shape="101.65,195.25 100.82,196.49 100.00,196.90 99.17,196.49 98.35,195.25"/>
    </edge>
    <edge id=":7_6" function="internal">
        <lane id=":7_6_0" index="0" speed="13.90" length="5.00" shape="95.25,198.35 96.61,198.16 97.57,197.57 98.16,196.61 98.35,195.25"/>
    </edge>
    <edge id=":7_7" function="internal">
        <lane id=":7_7_0" index="0" speed="13.90" length="9.50" shape="95.25,198.35 104.75,198.35"/>
    </edge>
    <edge id=":7_8" function="internal">
        <lane id=":7_8_0" index="0" speed="13.90" length="2.41" shape="95.25,198.35 96.49,199.17 96.90,200.00"/>
    </edge>
    <edge id=":7_11" function="internal">
        <lane id=":7_11_0" index="0" speed="13.90" length="2.41" shape="96.90,200.00 96.49,200.82 95.25,201.65"/>
    </edge>
    <edge id=":8_0" function="internal">
        <lane id=":8_0_0" index="0" speed="13.90" length="7.90" shape="201.65,196.75 201.34,198.89 200.43,200.42 198.89,201.34 196.75,201.65"/>
    </edge>
    <edge id=":8_1" function="internal">
        <lane id=":8_1_0" index="0" speed="13.90" length="2.80" shape="201.65,196.75 200.83,197.99 200.00,198.40 199.65,198.23"/>
    </edge>
    <edge id=":8_4" function="internal">
        <lane id=":8_4_0" index="0" speed="13.90" length="2.02" shape="199.65,198.23 199.18,197.99 198.35,196.75"/>
    </edge>
    <edge id=":8_2" function="internal">
        <lane id=":8_2_0" index="0" speed="13.90" length="2.58" shape="196.75,198.35 197.45,198.25 197.95,197.95 198.25,197.45 198.35,196.75"/>
    </edge>
    <edge id=":8_3" function="internal">
        <lane id=":8_3_0" index="0" speed="13.90" length="2.20" shape="196.75,198.35 197.99,199.17 198.31,199.81"/>
    </edge>
    <edge id=":8_5" function="internal">
        <lane id=":8_5_0" index="0" speed="13.90" length="2.62" shape="198.31,199.81 198.40,200.00 197.99,200.82 196.75,201.65"/>
    </edge>

    <edge id="0to1" from="0" to="1" priority="-1">
        <lane id="0to1_0" index="0" speed="13.90" length="92.00" shape="3.25,-1.65 95.25,-1.65"/>
    </edge>
    <edge id="0to3" from="0" to="3" priority="-1">
        <lane id="0to3_0" index="0" speed="13.90" length="92.00" shape="1.65,3.25 1.65,95.25"/>
    </edge>
    <edge id="1to0" from="1" to="0" priority="-1">
        <lane id="1to0_0" index="0" speed="13.90" length="92.00" shape="95.25,1.65 3.25,1.65"/>
    </edge>
    <edge id="1to2" from="1" to="2" priority="-1">
        <lane id="1to2_0" index="0" speed="13.90" length="92.00" shape="104.75,-1.65 196.75,-1.65"/>
    </edge>
    <edge id="1to4" from="1" to="4" priority="-1">
        <lane id="1to4_0" index="0" speed="13.90" length="90.50" shape="101.65,4.75 101.65,95.25"/>
    </edge>
    <edge id="2to1" from="2" to="1" priority="-1">
        <lane id="2to1_0" index="0" speed="13.90" length="92.00" shape="196.75,1.65 104.75,1.65"/>
    </edge>
    <edge id="2to5" from="2" to="5" priority="-1">
        <lane id="2to5_0" index="0" speed="13.90" length="92.00" shape="201.65,3.25 201.65,95.25"/>
    </edge>
    <edge id="3to0" from="3" to="0" priority="-1">
        <lane id="3to0_0" index="0" speed="13.90" length="92.00" shape="-1.65,95.25 -1.65,3.25"/>
    </edge>
    <edge id="3to4" from="3" to="4" priority="-1">
        <lane id="3to4_0" index="0" speed="13.90" length="90.50" shape="4.75,98.35 95.25,98.35"/>
    </edge>
    <edge id="3to6" from="3" to="6" priority="-1">
        <lane id="3to6_0" index="0" speed="13.90" length="92.00" shape="1.65,104.75 1.65,196.75"/>
    </edge>
    <edge id="4to1" from="4" to="1" priority="-1">
        <lane id="4to1_0" index="0" speed="13.90" length="90.50" shape="98.35,95.25 98.35,4.75"/>
    </edge>
    <edge id="4to3" from="4" to="3" priority="-1">
        <lane id="4to3_0" index="0" speed="13.90" length="90.50" shape="95.25,101.65 4.75,101.65"/>
    </edge>
    <edge id="4to5" from="4" to="5" priority="-1">
        <lane id="4to5_0" index="0" speed="13.90" length="90.50" shape="104.75,98.35 195.25,98.35"/>
    </edge>
    <edge id="4to7" from="4" to="7" priority="-1">
        <lane id="4to7_0" index="0" speed="13.90" length="90.50" shape="101.65,104.75 101.65,195.25"/>
    </edge>
    <edge id="5to2" from="5" to="2" priority="-1">
        <lane id="5to2_0" index="0" speed="13.90" length="92.00" shape="198.35,95.25 198.35,3.25"/>
    </edge>
    <edge id="5to4" from="5" to="4" priority="-1">
        <lane id="5to4_0" index="0" speed="13.90" length="90.50" shape="195.25,101.65 104.75,101.65"/>
    </edge>
    <edge id="5to8" from="5" to="8" priority="-1">
        <lane id="5to8_0" index="0" speed="13.90" length="92.00" shape="201.65,104.75 201.65,196.75"/>
    </edge>
    <edge id="6to3" from="6" to="3" priority="-1">
        <lane id="6to3_0" index="0" speed="13.90" length="92.00" shape="-1.65,196.75 -1.65,104.75"/>
    </edge>
    <edge id="6to7" from="6" to="7" priority="-1">
        <lane id="6to7_0" index="0" speed="13.90" length="92.00" shape="3.25,198.35 95.25,198.35"/>
    </edge>
    <edge id="7to4" from="7" to="4" priority="-1">
        <lane id="7to4_0" index="0" speed="13.90" length="90.50" shape="98.35,195.25 98.35,104.75"/>
    </edge>
    <edge id="7to6" from="7" to="6" priority="-1">
        <lane id="7to6_0" index="0" speed="13.90" length="92.00" shape="95.25,201.65 3.25,201.65"/>
    </edge>
    <edge id="7to8" from="7" to="8" priority="-1">
        <lane id="7to8_0" index="0" speed="13.90" length="92.00" shape="104.75,198.35 196.75,198.35"/>
    </edge>
    <edge id="8to5" from="8" to="5" priority="-1">
        <lane id="8to5_0" index="0" speed="13.90" length="92.00" shape="198.35,196.75 198.35,104.75"/>
    </edge>
    <edge id="8to7" from="8" to="7" priority="-1">
        <lane id="8to7_0" index="0" speed="13.90" length="92.00" shape="196.75,201.65 104.75,201.65"/>
    </edge>

    <junction id="0" type="priority" x="0.00" y="0.00" incLanes="3to0_0 1to0_0" intLanes=":0_0_0 :0_4_0 :0_2_0 :0_5_0" shape="-3.25,3.25 3.25,3.25 3.25,-3.25">
        <request index="0" response="0000" foes="1000" cont="0"/>
        <request index="1" response="0100" foes="0100" cont="1"/>
        <request index="2" response="0000" foes="0010" cont="0"/>
        <request index="3" response="0001" foes="0001" cont="1"/>
    </junction>
    <junction id="1" type="priority" x="100.00" y="0.00" incLanes="4to1_0 2to1_0 0to1_0" intLanes=":1_0_0 :1_1_0 :1_2_0 :1_3_0 :1_4_0 :1_9_0 :1_6_0 :1_10_0 :1_11_0" shape="96.75,4.75 103.25,4.75 104.75,3.25 104.75,-3.25 95.25,-3.25 95.25,3.25">
        <request index="0" response="000010000" foes="100010000" cont="0"/>
        <request index="1" response="011010000" foes="011110000" cont="0"/>
        <request index="2" response="010001000" foes="010001000" cont="0"/>
        <request index="3" response="000000000" foes="010000100" cont="0"/>
        <request index="4" response="000000000" foes="110000011" cont="0"/>
        <request index="5" response="001000010" foes="001000010" cont="1"/>
        <request index="6" response="000000000" foes="000100010" cont="0"/>
        <request index="7" response="000011000" foes="000011110" cont="1"/>
        <request index="8" response="000010001" foes="000010001" cont="1"/>
    </junction>
    <junction id="2" type="priority" x="200.00" y="0.00" incLanes="5to2_0 1to2_0" intLanes=":2_0_0 :2_4_0 :2_2_0 :2_5_0" shape="196.75,3.25 203.25,3.25 196.75,-3.25 196.75,3.25">
        <request index="0" response="0000" foes="1000" cont="0"/>
        <request index="1" response="0100" foes="0100" cont="1"/>
        <request index="2" response="0000" foes="0010" cont="0"/>
        <request index="3" response="0001" foes="0001" cont="1"/>
    </junction>
    <junction id="3" type="priority" x="0.00" y="100.00" incLanes="6to3_0 4to3_0 0to3_0" intLanes=":3_0_0 :3_9_0 :3_10_0 :3_3_0 :3_4_0 :3_5_0 :3_6_0 :3_7_0 :3_11_0" shape="-3.25,104.75 3.25,104.75 4.75,103.25 4.75,96.75 3.25,95.25 -3.25,95.25">
        <request index="0" response="000000000" foes="100010000" cont="0"/>
        <request index="1" response="011000000" foes="011110000" cont="1"/>
        <request index="2" response="010001000" foes="010001000" cont="1"/>
        <request index="3" response="010000000" foes="010000100" cont="0"/>
        <request index="4" response="010000011" foes="110000011" cont="0"/>
        <request index="5" response="001000010" foes="001000010" cont="0"/>
        <request index="6" response="000000000" foes="000100010" cont="0"/>
        <request index="7" response="000000000" foes="000011110" cont="0"/>
        <request index="8" response="000010001" foes="000010001" cont="1"/>
    </junction>
    <junction id="4" type="priority" x="100.00" y="100.00" incLanes="7to4_0 5to4_0 1to4_0 3to4_0" intLanes=":4_0_0 :4_1_0 :4_16_0 :4_17_0 :4_4_0 :4_5_0 :4_6_0 :4_7_0 :4_8_0 :4_9_0 :4_18_0 :4_19_0 :4_12_0 :4_13_0 :4_14_0 :4_15_0" shape="96.75,104.75 103.25,104.75 104.75,103.25 104.75,96.75 103.25,95.25 96.75,95.25 95.25,96.75 95.25,103.25">
        <request index="0" response="0000000000000000" foes="1000010000100000" cont="0"/>
        <request index="1" response="0000000000000000" foes="0111110001100000" cont="0"/>
        <request index="2" response="0000001100000000" foes="0110001111100000" cont="1"/>
        <request index="3" response="0100001000010000" foes="0100001000010000" cont="1"/>
        <request index="4" response="0000001000000000" foes="0100001000001000" cont="0"/>
        <request index="5" response="0000011000000111" foes="1100011000000111" cont="0"/>
        <request index="6" response="0011011000000110" foes="0011111000000110" cont="0"/>
        <request index="7" response="0010000100000100" foes="0010000100000100" cont="0"/>
        <request index="8" response="0000000000000000" foes="0010000010000100" cont="0"/>
        <request index="9" response="0000000000000000" foes="0110000001111100" cont="0"/>
        <request index="10" response="0000000000000011" foes="1110000001100011" cont="1"/>
        <request index="11" response="0001000001000010" foes="0001000001000010" cont="1"/>
        <request index="12" response="0000000000000010" foes="0000100001000010" cont="0"/>
        <request index="13" response="0000011100000110" foes="0000011111000110" cont="0"/>
        <request index="14" response="0000011000110110" foes="0000011000111110" cont="0"/>
        <request index="15" response="0000010000100001" foes="0000010000100001" cont="0"/>
    </junction>
    <junction id="5" type="priority" x="200.00" y="100.00" incLanes="8to5_0 2to5_0 4to5_0" intLanes=":5_0_0 :5_1_0 :5_9_0 :5_3_0 :5_10_0 :5_11_0 :5_6_0 :5_7_0 :5_8_0" shape="196.75,104.75 203.25,104.75 203.25,95.25 196.75,95.25 195.25,96.75 195.25,103.25">
        <request index="0" response="000000000" foes="100010000" cont="0"/>
        <request index="1" response="000000000" foes="011110000" cont="0"/>
        <request index="2" response="010001000" foes="010001000" cont="1"/>
        <request index="3" response="000000000" foes="010000100" cont="0"/>
        <request index="4" response="000000011" foes="110000011" cont="1"/>
        <request index="5" response="001000010" foes="001000010" cont="1"/>
        <request index="6" response="000000010" foes="000100010" cont="0"/>
        <request index="7" response="000011010" foes="000011110" cont="0"/>
        <request index="8" response="000010001" foes="000010001" cont="0"/>
    </junction>
    <junction id="6" type="priority" x="0.00" y="200.00" incLanes="7to6_0 3to6_0" intLanes=":6_0_0 :6_4_0 :6_2_0 :6_5_0" shape="3.25,203.25 3.25,196.75 -3.25,196.75">
        <request index="0" response="0000" foes="1000" cont="0"/>
        <request index="1" response="0100" foes="0100" cont="1"/>
        <request index="2" response="0000" foes="0010" cont="0"/>
        <request index="3" response="0001" foes="0001" cont="1"/>
    </junction>
    <junction id="7" type="priority" x="100.00" y="200.00" incLanes="8to7_0 4to7_0 6to7_0" intLanes=":7_0_0 :7_9_0 :7_10_0 :7_3_0 :7_4_0 :7_5_0 :7_6_0 :7_7_0 :7_11_0" shape="104.75,203.25 104.75,196.75 103.25,195.25 96.75,195.25 95.25,196.75 95.25,203.25">
        <request index="0" response="000000000" foes="100010000" cont="0"/>
        <request index="1" response="011000000" foes="011110000" cont="1"/>
        <request index="2" response="010001000" foes="010001000" cont="1"/>
        <request index="3" response="010000000" foes="010000100" cont="0"/>
        <request index="4" response="010000011" foes="110000011" cont="0"/>
        <request index="5" response="001000010" foes="001000010" cont="0"/>
        <request index="6" response="000000000" foes="000100010" cont="0"/>
        <request index="7" response="000000000" foes="000011110" cont="0"/>
        <request index="8" response="000010001" foes="000010001" cont="1"/>
    </junction>
    <junction id="8" type="priority" x="200.00" y="200.00" incLanes="5to8_0 7to8_0" intLanes=":8_0_0 :8_4_0 :8_2_0 :8_5_0" shape="203.25,196.75 196.75,196.75 196.75,203.25">
        <request index="0" response="0000" foes="1000" cont="0"/>
        <request index="1" response="0100" foes="0100" cont="1"/>
        <request index="2" response="0000" foes="0010" cont="0"/>
        <request index="3" response="0001" foes="0001" cont="1"/>
    </junction>

    <junction id=":0_4_0" type="internal" x="0.35" y="1.77" incLanes=":0_1_0 1to0_0" intLanes=":0_2_0"/>
    <junction id=":0_5_0" type="internal" x="1.69" y="0.19" incLanes=":0_3_0 3to0_0" intLanes=":0_0_0"/>
    <junction id=":1_9_0" type="internal" x="103.10" y="0.00" incLanes=":1_5_0 0to1_0 4to1_0" intLanes=":1_1_0 :1_6_0"/>
    <junction id=":1_10_0" type="internal" x="100.11" y="0.05" incLanes=":1_7_0 2to1_0" intLanes=":1_1_0 :1_2_0 :1_3_0 :1_4_0"/>
    <junction id=":1_11_0" type="internal" x="96.90" y="0.00" incLanes=":1_8_0 2to1_0 4to1_0" intLanes=":1_0_0 :1_4_0"/>
    <junction id=":2_4_0" type="internal" x="199.81" y="1.69" incLanes=":2_1_0 1to2_0" intLanes=":2_2_0"/>
    <junction id=":2_5_0" type="internal" x="198.23" y="0.35" incLanes=":2_3_0 5to2_0" intLanes=":2_0_0"/>
    <junction id=":3_9_0" type="internal" x="0.05" y="99.89" incLanes=":3_1_0 0to3_0" intLanes=":3_4_0 :3_5_0 :3_6_0 :3_7_0"/>
    <junction id=":3_10_0" type="internal" x="0.00" y="103.10" incLanes=":3_2_0 0to3_0 4to3_0" intLanes=":3_3_0 :3_7_0"/>
    <junction id=":3_11_0" type="internal" x="0.00" y="96.90" incLanes=":3_8_0 4to3_0 6to3_0" intLanes=":3_0_0 :3_4_0"/>
    <junction id=":4_16_0" type="internal" x="100.05" y="99.89" incLanes=":4_2_0 1to4_0" intLanes=":4_5_0 :4_6_0 :4_7_0 :4_8_0 :4_9_0 :4_13_0 :4_14_0"/>
    <junction id=":4_17_0" type="internal" x="100.00" y="103.10" incLanes=":4_3_0 1to4_0 3to4_0 5to4_0" intLanes=":4_4_0 :4_9_0 :4_14_0"/>
    <junction id=":4_18_0" type="internal" x="99.95" y="100.11" incLanes=":4_10_0 7to4_0" intLanes=":4_0_0 :4_1_0 :4_5_0 :4_6_0 :4_13_0 :4_14_0 :4_15_0"/>
    <junction id=":4_19_0" type="internal" x="100.00" y="96.90" incLanes=":4_11_0 3to4_0 5to4_0 7to4_0" intLanes=":4_1_0 :4_6_0 :4_12_0"/>