<?xml version="1.0" encoding="UTF-8"?>

<!-- generated on Wed Aug  8 12:55:49 2018 by SUMO netconvert Version 0.25.0
<?xml version="1.0" encoding="UTF-8"?>

<configuration xmlns:xsi="http://www.w3.org/2001/XMLSchema-instance" xsi:noNamespaceSchemaLocation="http://sumo.dlr.de/xsd/netconvertConfiguration.xsd">

    <input>
        <node-files value="hello.nod.xml"/>
        <edge-files value="hello.edg.xml"/>
    </input>

    <output>
        <output-file value="hello.net.xml"/>
    </output>

</configuration>
-->

<net version="0.25" xmlns:xsi="http://www.w3.org/2001/XMLSchema-instance" xsi:noNamespaceSchemaLocation="http://sumo.dlr.de/xsd/net_file.xsd">

    <location netOffset="0.00,260.00" convBoundary="0.00,0.00,260.00,260.00" origBoundary="0.00,-260.00,260.00,0.00" projParameter="!"/>

    <edge id=":0_0" function="internal">
        <lane id=":0_0_0" index="0" speed="13.90" length="7.90" shape="3.25,261.65 1.11,261.34 -0.43,260.42 -1.34,258.89 -1.65,256.75"/>
    </edge>
    <edge id=":0_1" function="internal">
        <lane id=":0_1_0" index="0" speed="13.90" length="2.80" shape="3.25,261.65 2.01,260.82 1.60,260.00 1.77,259.65"/>
    </edge>
    <edge id=":0_4" function="internal">
        <lane id=":0_4_0" index="0" speed="13.90" length="2.02" shape="1.77,259.65 2.01,259.18 3.25,258.35"/>
    </edge>
    <edge id=":0_2" function="internal">
        <lane id=":0_2_0" index="0" speed="13.90" length="2.58" shape="1.65,256.75 1.75,257.45 2.05,257.95 2.55,258.25 3.25,258.35"/>
    </edge>
    <edge id=":0_3" function="internal">
        <lane id=":0_3_0" index="0" speed="13.90" length="2.20" shape="1.65,256.75 0.83,257.99 0.19,258.31"/>
    </edge>
    <edge id=":0_5" function="internal">
        <lane id=":0_5_0" index="0" speed="13.90" length="2.62" shape="0.19,258.31 0.00,258.40 -0.83,257.99 -1.65,256.75"/>
    </edge>
    <edge id=":1_0" function="internal">
        <lane id=":1_0_0" index="0" speed="13.90" length="9.50" shape="69.75,261.65 60.25,261.65"/>
    </edge>
    <edge id=":1_1" function="internal">
        <lane id=":1_1_0" index="0" speed="13.90" length="5.28" shape="69.75,261.65 66.95,261.25 64.95,260.05 64.89,259.95"/>
    </edge>
    <edge id=":1_2" function="internal">
        <lane id=":1_2_0" index="0" speed="13.90" length="2.41" shape="69.75,261.65 68.51,260.82 68.10,260.00"/>
    </edge>
    <edge id=":1_9" function="internal">
        <lane id=":1_9_0" index="0" speed="13.90" length="5.04" shape="64.89,259.95 63.75,258.05 63.35,255.25"/>
    </edge>
    <edge id=":1_10" function="internal">
        <lane id=":1_10_0" index="0" speed="13.90" length="2.41" shape="68.10,260.00 68.51,259.18 69.75,258.35"/>
    </edge>
    <edge id=":1_3" function="internal">
        <lane id=":1_3_0" index="0" speed="13.90" length="5.00" shape="66.65,255.25 66.84,256.61 67.43,257.58 68.39,258.16 69.75,258.35"/>
    </edge>
    <edge id=":1_4" function="internal">
        <lane id=":1_4_0" index="0" speed="13.90" length="10.32" shape="66.65,255.25 66.25,258.05 65.05,260.05 63.05,261.25 60.25,261.65"/>
    </edge>
    <edge id=":1_5" function="internal">
        <lane id=":1_5_0" index="0" speed="13.90" length="4.82" shape="66.65,255.25 65.83,256.49 65.00,256.90 64.17,256.49 63.35,255.25"/>
    </edge>
    <edge id=":1_6" function="internal">
        <lane id=":1_6_0" index="0" speed="13.90" length="5.00" shape="60.25,258.35 61.61,258.16 62.57,257.58 63.16,256.61 63.35,255.25"/>
    </edge>
    <edge id=":1_7" function="internal">
        <lane id=":1_7_0" index="0" speed="13.90" length="9.50" shape="60.25,258.35 69.75,258.35"/>
    </edge>
    <edge id=":1_8" function="internal">
        <lane id=":1_8_0" index="0" speed="13.90" length="2.41" shape="60.25,258.35 61.49,259.18 61.90,260.00"/>
    </edge>
    <edge id=":1_11" function="internal">
        <lane id=":1_11_0" index="0" speed="13.90" length="2.41" shape="61.90,260.00 61.49,260.82 60.25,261.65"/>
    </edge>
    <edge id=":10_0" function="internal">
        <lane id=":10_0_0" index="0" speed="13.90" length="9.50" shape="-1.65,134.75 -1.65,125.25"/>
    </edge>
    <edge id=":10_1" function="internal">
        <lane id=":10_1_0" index="0" speed="13.90" length="5.28" shape="-1.65,134.75 -1.25,131.95 -0.05,129.95 0.05,129.89"/>
    </edge>
    <edge id=":10_2" function="internal">
        <lane id=":10_2_0" index="0" speed="13.90" length="2.41" shape="-1.65,134.75 -0.83,133.51 0.00,133.10"/>
    </edge>
    <edge id=":10_9" function="internal">
        <lane id=":10_9_0" index="0" speed="13.90" length="5.04" shape="0.05,129.89 1.95,128.75 4.75,128.35"/>
    </edge>
    <edge id=":10_10" function="internal">
        <lane id=":10_10_0" index="0" speed="13.90" length="2.41" shape="0.00,133.10 0.83,133.51 1.65,134.75"/>
    </edge>
    <edge id=":10_3" function="internal">
        <lane id=":10_3_0" index="0" speed="13.90" length="5.00" shape="4.75,131.65 3.39,131.84 2.43,132.43 1.84,133.39 1.65,134.75"/>
    </edge>
    <edge id=":10_4" function="internal">
        <lane id=":10_4_0" index="0" speed="13.90" length="10.32" shape="4.75,131.65 1.95,131.25 -0.05,130.05 -1.25,128.05 -1.65,125.25"/>
    </edge>
    <edge id=":10_5" function="internal">
        <lane id=":10_5_0" index="0" speed="13.90" length="4.82" shape="4.75,131.65 3.51,130.83 3.10,130.00 3.51,129.17 4.75,128.35"/>
    </edge>
    <edge id=":10_6" function="internal">
        <lane id=":10_6_0" index="0" speed="13.90" length="5.00" shape="1.65,125.25 1.84,126.61 2.42,127.57 3.39,128.16 4.75,128.35"/>
    </edge>
    <edge id=":10_7" function="internal">
        <lane id=":10_7_0" index="0" speed="13.90" length="9.50" shape="1.65,125.25 1.65,134.75"/>
    </edge>
    <edge id=":10_8" function="internal">
        <lane id=":10_8_0" index="0" speed="13.90" length="2.41" shape="1.65,125.25 0.83,126.49 0.00,126.90"/>
    </edge>
    <edge id=":10_11" function="internal">
        <lane id=":10_11_0" index="0" speed="13.90" length="2.41" shape="0.00,126.90 -0.83,126.49 -1.65,125.25"/>
    </edge>
    <edge id=":11_0" function="internal">
        <lane id=":11_0_0" index="0" speed="13.90" length="5.00" shape="63.35,134.75 63.16,133.39 62.58,132.43 61.61,131.84 60.25,131.65"/>
    </edge>
    <edge id=":11_1" function="internal">
        <lane id=":11_1_0" index="0" speed="13.90" length="9.50" shape="63.35,134.75 63.35,125.25"/>
    </edge>
    <edge id=":11_2" function="internal">
        <lane id=":11_2_0" index="0" speed="13.90" length="5.28" shape="63.35,134.75 63.75,131.95 64.95,129.95 65.05,129.89"/>
    </edge>
    <edge id=":11_3" function="internal">
        <lane id=":11_3_0" index="0" speed="13.90" length="2.41" shape="63.35,134.75 64.17,133.51 65.00,133.10"/>
    </edge>
    <edge id=":11_16" function="internal">
        <lane id=":11_16_0" index="0" speed="13.90" length="5.04" shape="65.05,129.89 66.95,128.75 69.75,128.35"/>
    </edge>
    <edge id=":11_17" function="internal">
        <lane id=":11_17_0" index="0" speed="13.90" length="2.41" shape="65.00,133.10 65.83,133.51 66.65,134.75"/>
    </edge>
    <edge id=":11_4" function="internal">
        <lane id=":11_4_0" index="0" speed="13.90" length="5.00" shape="69.75,131.65 68.39,131.84 67.43,132.43 66.84,133.39 66.65,134.75"/>
    </edge>
    <edge id=":11_5" function="internal">
        <lane id=":11_5_0" index="0" speed="13.90" length="9.50" shape="69.75,131.65 60.25,131.65"/>
    </edge>
    <edge id=":11_6" function="internal">
        <lane id=":11_6_0" index="0" speed="13.90" length="10.32" shape="69.75,131.65 66.95,131.25 64.95,130.05 63.75,128.05 63.35,125.25"/>
    </edge>
    <edge id=":11_7" function="internal">
        <lane id=":11_7_0" index="0" speed="13.90" length="4.82" shape="69.75,131.65 68.51,130.83 68.10,130.00 68.51,129.17 69.75,128.35"/>
    </edge>
    <edge id=":11_8" function="internal">
        <lane id=":11_8_0" index="0" speed="13.90" length="5.00" shape="66.65,125.25 66.84,126.61 67.43,127.57 68.39,128.16 69.75,128.35"/>
    </edge>
    <edge id=":11_9" function="internal">
        <lane id=":11_9_0" index="0" speed="13.90" length="9.50" shape="66.65,125.25 66.65,134.75"/>
    </edge>
    <edge id=":11_10" function="internal">
        <lane id=":11_10_0" index="0" speed="13.90" length="5.28" shape="66.65,125.25 66.25,128.05 65.05,130.05 64.95,130.11"/>
    </edge>
    <edge id=":11_11" function="internal">
        <lane id=":11_11_0" index="0" speed="13.90" length="2.41" shape="66.65,125.25 65.83,126.49 65.00,126.90"/>
    </edge>
    <edge id=":11_18" function="internal">
        <lane id=":11_18_0" index="0" speed="13.90" length="5.04" shape="64.95,130.11 63.05,131.25 60.25,131.65"/>
    </edge>
    <edge id=":11_19" function="internal">
        <lane id=":11_19_0" index="0" speed="13.90" length="2.41" shape="65.00,126.90 64.17,126.49 63.35,125.25"/>
    </edge>
    <edge id=":11_12" function="internal">
        <lane id=":11_12_0" index="0" speed="13.90" length="5.00" shape="60.25,128.35 61.61,128.16 62.57,127.57 63.16,126.61 63.35,125.25"/>
    </edge>
    <edge id=":11_13" function="internal">
        <lane id=":11_13_0" index="0" speed="13.90" length="9.50" shape="60.25,128.35 69.75,128.35"/>
    </edge>
    <edge id=":11_14" function="internal">
        <lane id=":11_14_0" index="0" speed="13.90" length="10.32" shape="60.25,128.35 63.05,128.75 65.05,129.95 66.25,131.95 66.65,134.75"/>
    </edge>
    <edge id=":11_15" function="internal">
        <lane id=":11_15_0" index="0" speed="13.90" length="4.82" shape="60.25,128.35 61.49,129.17 61.90,130.00 61.49,130.83 60.25,131.65"/>
    </edge>
    <edge id=":12_0" function="internal">
        <lane id=":12_0_0" index="0" speed="13.90" length="5.00" shape="128.35,134.75 128.16,133.39 127.57,132.43 126.61,131.84 125.25,131.65"/>
    </edge>
    <edge id=":12_1" function="internal">
        <lane id=":12_1_0" index="0" speed="13.90" length="9.50" shape="128.35,134.75 128.35,125.25"/>
    </edge>
    <edge id=":12_2" function="internal">
        <lane id=":12_2_0" index="0" speed="13.90" length="5.28" shape="128.35,134.75 128.75,131.95 129.95,129.95 130.05,129.89"/>
    </edge>
    <edge id=":12_3" function="internal">
        <lane id=":12_3_0" index="0" speed="13.90" length="2.41" shape="128.35,134.75 129.17,133.51 130.00,133.10"/>
    </edge>
    <edge id=":12_16" function="internal">
        <lane id=":12_16_0" index="0" speed="13.90" length="5.04" shape="130.05,129.89 131.95,128.75 134.75,128.35"/>
    </edge>
    <edge id=":12_17" function="internal">
        <lane id=":12_17_0" index="0" speed="13.90" length="2.41" shape="130.00,133.10 130.83,133.51 131.65,134.75"/>
    </edge>
    <edge id=":12_4" function="internal">
        <lane id=":12_4_0" index="0" speed="13.90" length="5.00" shape="134.75,131.65 133.39,131.84 132.43,132.43 131.84,133.39 131.65,134.75"/>
    </edge>
    <edge id=":12_5" function="internal">
        <lane id=":12_5_0" index="0" speed="13.90" length="9.50" shape="134.75,131.65 125.25,131.65"/>
    </edge>
    <edge id=":12_6" function="internal">
        <lane id=":12_6_0" index="0" speed="13.90" length="10.32" shape="134.75,131.65 131.95,131.25 129.95,130.05 128.75,128.05 128.35,125.25"/>
    </edge>
    <edge id=":12_7" function="internal">
        <lane id=":12_7_0" index="0" speed="13.90" length="4.82" shape="134.75,131.65 133.51,130.83 133.10,130.00 133.51,129.17 134.75,128.35"/>
    </edge>
    <edge id=":12_8" function="internal">
        <lane id=":12_8_0" index="0" speed="13.90" length="5.00" shape="131.65,125.25 131.84,126.61 132.43,127.57 133.39,128.16 134.75,128.35"/>
    </edge>
    <edge id=":12_9" function="internal">
        <lane id=":12_9_0" index="0" speed="13.90" length="9.50" shape="131.65,125.25 131.65,134.75"/>
    </edge>
    <edge id=":12_10" function="internal">
        <lane id=":12_10_0" index="0" speed="13.90" length="5.28" shape="131.65,125.25 131.25,128.05 130.05,130.05 129.95,130.11"/>
    </edge>
    <edge id=":12_11" function="internal">
        <lane id=":12_11_0" index="0" speed="13.90" length="2.41" shape="131.65,125.25 130.83,126.49 130.00,126.90"/>
    </edge>
    <edge id=":12_18" function="internal">
        <lane id=":12_18_0" index="0" speed="13.90" length="5.04" shape="129.95,130.11 128.05,131.25 125.25,131.65"/>
    </edge>
    <edge id=":12_19" function="internal">
        <lane id=":12_19_0" index="0" speed="13.90" length="2.41" shape="130.00,126.90 129.17,126.49 128.35,125.25"/>
    </edge>
    <edge id=":12_12" function="internal">
        <lane id=":12_12_0" index="0" speed="13.90" length="5.00" shape="125.25,128.35 126.61,128.16 127.57,127.57 128.16,126.61 128.35,125.25"/>
    </edge>
    <edge id=":12_13" function="internal">
        <lane id=":12_13_0" index="0" speed="13.90" length="9.50" shape="125.25,128.35 134.75,128.35"/>
    </edge>
    <edge id=":12_14" function="internal">
        <lane id=":12_14_0" index="0" speed="13.90" length="10.32" shape="125.25,128.35 128.05,128.75 130.05,129.95 131.25,131.95 131.65,134.75"/>
    </edge>
    <edge id=":12_15" function="internal">
        <lane id=":12_15_0" index="0" speed="13.90" length="4.82" shape="125.25,128.35 126.49,129.17 126.90,130.00 126.49,130.83 125.25,131.65"/>
    </edge>
    <edge id=":13_0" function="internal">
        <lane id=":13_0_0" index="0" speed="13.90" length="5.00" shape="193.35,134.75 193.16,133.39 192.57,132.43 191.61,131.84 190.25,131.65"/>
    </edge>
    <edge id=":13_1" function="internal">
        <lane id=":13_1_0" index="0" speed="13.90" length="9.50" shape="193.35,134.75 193.35,125.25"/>
    </edge>
    <edge id=":13_2" function="internal">
        <lane id=":13_2_0" index="0" speed="13.90" length="5.28" shape="193.35,134.75 193.75,131.95 194.95,129.95 195.05,129.89"/>
    </edge>
    <edge id=":13_3" function="internal">
        <lane id=":13_3_0" index="0" speed="13.90" length="2.41" shape="193.35,134.75 194.17,133.51 195.00,133.10"/>
    </edge>
    <edge id=":13_16" function="internal">
        <lane id=":13_16_0" index="0" speed="13.90" length="5.04" shape="195.05,129.89 196.95,128.75 199.75,128.35"/>
    </edge>
    <edge id=":13_17" function="internal">
        <lane id=":13_17_0" index="0" speed="13.90" length="2.41" shape="195.00,133.10 195.82,133.51 196.65,134.75"/>
    </edge>
    <edge id=":13_4" function="internal">
        <lane id=":13_4_0" index="0" speed="13.90" length="5.00" shape="199.75,131.65 198.39,131.84 197.42,132.43 196.84,133.39 196.65,134.75"/>
    </edge>
    <edge id=":13_5" function="internal">
        <lane id=":13_5_0" index="0" speed="13.90" length="9.50" shape="199.75,131.65 190.25,131.65"/>
    </edge>
    <edge id=":13_6" function="internal">
        <lane id=":13_6_0" index="0" speed="13.90" length="10.32" shape="199.75,131.65 196.95,131.25 194.95,130.05 193.75,128.05 193.35,125.25"/>
    </edge>
    <edge id=":13_7" function="internal">
        <lane id=":13_7_0" index="0" speed="13.90" length="4.82" shape="199.75,131.65 198.51,130.83 198.10,130.00 198.51,129.17 199.75,128.35"/>
    </edge>
    <edge id=":13_8" function="internal">
        <lane id=":13_8_0" index="0" speed="13.90" length="5.00" shape="196.65,125.25 196.84,126.61 197.43,127.57 198.39,128.16 199.75,128.35"/>
    </edge>
    <edge id=":13_9" function="internal">
        <lane id=":13_9_0" index="0" speed="13.90" length="9.50" shape="196.65,125.25 196.65,134.75"/>
    </edge>
    <edge id=":13_10" function="internal">
        <lane id=":13_10_0" index="0" speed="13.90" length="5.28" shape="196.65,125.25 196.25,128.05 195.05,130.05 194.95,130.11"/>
    </edge>
    <edge id=":13_11" function="internal">
        <lane id=":13_11_0" index="0" speed="13.90" length="2.41" shape="196.65,125.25 195.83,126.49 195.00,126.90"/>
    </edge>
    <edge id=":13_18" function="internal">
        <lane id=":13_18_0" index="0" speed="13.90" length="5.04" shape="194.95,130.11 193.05,131.25 190.25,131.65"/>
    </edge>
    <edge id=":13_19" function="internal">
        <lane id=":13_19_0" index="0" speed="13.90" length="2.41" shape="195.00,126.90 194.18,126.49 193.35,125.25"/>
    </edge>
    <edge id=":13_12" function="internal">
        <lane id=":13_12_0" index="0" speed="13.90" length="5.00" shape="190.25,128.35 191.61,128.16 192.58,127.57 193.16,126.61 193.35,125.25"/>
    </edge>
    <edge id=":13_13" function="internal">
        <lane id=":13_13_0" index="0" speed="13.90" length="9.50" shape="190.25,128.35 199.75,128.35"/>
    </edge>
    <edge id=":13_14" function="internal">
        <lane id=":13_14_0" index="0" speed="13.90" length="10.32" shape="190.25,128.35 193.05,128.75 195.05,129.95 196.25,131.95 196.65,134.75"/>
    </edge>
    <edge id=":13_15" function="internal">
        <lane id=":13_15_0" index="0" speed="13.90" length="4.82" shape="190.25,128.35 191.49,129.17 191.90,130.00 191.49,130.83 190.25,131.65"/>
    </edge>
    <edge id=":14_0" function="internal">
        <lane id=":14_0_0" index="0" speed="13.90" length="5.00" shape="258.35,134.75 258.16,133.39 257.58,132.43 256.61,131.84 255.25,131.65"/>
    </edge>
    <edge id=":14_1" function="internal">
        <lane id=":14_1_0" index="0" speed="13.90" length="9.50" shape="258.35,134.75 258.35,125.25"/>
    </edge>
    <edge id=":14_2" function="internal">
        <lane id=":14_2_0" index="0" speed="13.90" length="2.41" shape="258.35,134.75 259.18,133.51 260.00,133.10"/>
    </edge>
    <edge id=":14_9" function="internal">
        <lane id=":14_9_0" index="0" speed="13.90" length="2.41" shape="260.00,133.10 260.82,133.51 261.65,134.75"/>
    </edge>
    <edge id=":14_3" function="internal">
        <lane id=":14_3_0" index="0" speed="13.90" length="9.50" shape="261.65,125.25 261.65,134.75"/>
    </edge>
    <edge id=":14_4" function="internal">
        <lane id=":14_4_0" index="0" speed="13.90" length="5.28" shape="261.65,125.25 261.25,128.05 260.05,130.05 259.95,130.11"/>
    </edge>
    <edge id=":14_5" function="internal">
        <lane id=":14_5_0" index="0" speed="13.90" length="2.41" shape="261.65,125.25 260.82,126.49 260.00,126.90"/>
    </edge>
    <edge id=":14_10" function="internal">
        <lane id=":14_10_0" index="0" speed="13.90" length="5.04" shape="259.95,130.11 258.05,131.25 255.25,131.65"/>
    </edge>
    <edge id=":14_11" function="internal">
        <lane id=":14_11_0" index="0" speed="13.90" length="2.41" shape="260.00,126.90 259.18,126.49 258.35,125.25"/>
    </edge>
    <edge id=":14_6" function="internal">
        <lane id=":14_6_0" index="0" speed="13.90" length="5.00" shape="255.25,128.35 256.61,128.16 257.58,127.57 258.16,126.61 258.35,125.25"/>
    </edge>
    <edge id=":14_7" function="internal">
        <lane id=":14_7_0" index="0" speed="13.90" length="10.32" shape="255.25,128.35 258.05,128.75 260.05,129.95 261.25,131.95 261.65,134.75"/>
    </edge>
    <edge id=":14_8" function="internal">
        <lane id=":14_8_0" index="0" speed="13.90" length="4.82" shape="255.25,128.35 256.49,129.17 256.90,130.00 256.49,130.83 255.25,131.65"/>
    </edge>
    <edge id=":15_0" function="internal">
        <lane id=":15_0_0" index="0" speed="13.90" length="9.50" shape="-1.65,69.75 -1.65,60.25"/>
    </edge>
    <edge id=":15_1" function="internal">
        <lane id=":15_1_0" index="0" speed="13.90" length="5.28" shape="-1.65,69.75 -1.25,66.95 -0.05,64.95 0.05,64.89"/>
    </edge>
    <edge id=":15_2" function="internal">
        <lane id=":15_2_0" index="0" speed="13.90" length="2.41" shape="-1.65,69.75 -0.83,68.51 0.00,68.10"/>
    </edge>
    <edge id=":15_9" function="internal">
        <lane id=":15_9_0" index="0" speed="13.90" length="5.04" shape="0.05,64.89 1.95,63.75 4.75,63.35"/>
    </edge>
    <edge id=":15_10" function="internal">
        <lane id=":15_10_0" index="0" speed="13.90" length="2.41" shape="0.00,68.10 0.83,68.51 1.65,69.75"/>
    </edge>
    <edge id=":15_3" function="internal">
        <lane id=":15_3_0" index="0" speed="13.90" length="5.00" shape="4.75,66.65 3.39,66.84 2.43,67.43 1.84,68.39 1.65,69.75"/>
    </edge>
    <edge id=":15_4" function="internal">
        <lane id=":15_4_0" index="0" speed="13.90" length="10.32" shape="4.75,66.65 1.95,66.25 -0.05,65.05 -1.25,63.05 -1.65,60.25"/>
    </edge>
    <edge id=":15_5" function="internal">
        <lane id=":15_5_0" index="0" speed="13.90" length="4.82" shape="4.75,66.65 3.51,65.83 3.10,65.00 3.51,64.17 4.75,63.35"/>
    </edge>
    <edge id=":15_6" function="internal">
        <lane id=":15_6_0" index="0" speed="13.90" length="5.00" shape="1.65,60.25 1.84,61.61 2.42,62.57 3.39,63.16 4.75,63.35"/>
    </edge>
    <edge id=":15_7" function="internal">
        <lane id=":15_7_0" index="0" speed="13.90" length="9.50" shape="1.65,60.25 1.65,69.75"/>
    </edge>
    <edge id=":15_8" function="internal">
        <lane id=":15_8_0" index="0" speed="13.90" length="2.41" shape="1.65,60.25 0.83,61.49 0.00,61.90"/>
    </edge>
    <edge id=":15_11" function="internal">
        <lane id=":15_11_0" index="0" speed="13.90" length="2.41" shape="0.00,61.90 -0.83,61.49 -1.65,60.25"/>
    </edge>
    <edge id=":16_0" function="internal">
        <lane id=":16_0_0" index="0" speed="13.90" length="5.00" shape="63.35,69.75 63.16,68.39 62.58,67.43 61.61,66.84 60.25,66.65"/>
    </edge>
    <edge id=":16_1" function="internal">
        <lane id=":16_1_0" index="0" speed="13.90" length="9.50" shape="63.35,69.75 63.35,60.25"/>
    </edge>
    <edge id=":16_2" function="internal">
        <lane id=":16_2_0" index="0" speed="13.90" length="5.28" shape="63.35,69.75 63.75,66.95 64.95,64.95 65.05,64.89"/>
    </edge>
    <edge id=":16_3" function="internal">
        <lane id=":16_3_0" index="0" speed="13.90" length="2.41" shape="63.35,69.75 64.17,68.51 65.00,68.10"/>
    </edge>
    <edge id=":16_16" function="internal">
        <lane id=":16_16_0" index="0" speed="13.90" length="5.04" shape="65.05,64.89 66.95,63.75 69.75,63.35"/>
    </edge>
    <edge id=":16_17" function="internal">
        <lane id=":16_17_0" index="0" speed="13.90" length="2.41" shape="65.00,68.10 65.83,68.51 66.65,69.75"/>
    </edge>
    <edge id=":16_4" function="internal">
        <lane id=":16_4_0" index="0" speed="13.90" length="5.00" shape="69.75,66.65 68.39,66.84 67.43,67.43 66.84,68.39 66.65,69.75"/>
    </edge>
    <edge id=":16_5" function="internal">
        <lane id=":16_5_0" index="0" speed="13.90" length="9.50" shape="69.75,66.65 60.25,66.65"/>
    </edge>
    <edge id=":16_6" function="internal">
        <lane id=":16_6_0" index="0" speed="13.90" length="10.32" shape="69.75,66.65 66.95,66.25 64.95,65.05 63.75,63.05 63.35,60.25"/>
    </edge>
    <edge id=":16_7" function="internal">
        <lane id=":16_7_0" index="0" speed="13.90" length="4.82" shape="69.75,66.65 68.51,65.83 68.10,65.00 68.51,64.17 69.75,63.35"/>
    </edge>
    <edge id=":16_8" function="internal">
        <lane id=":16_8_0" index="0" speed="13.90" length="5.00" shape="66.65,60.25 66.84,61.61 67.43,62.57 68.39,63.16 69.75,63.35"/>
    </edge>
    <edge id=":16_9" function="internal">
        <lane id=":16_9_0" index="0" speed="13.90" length="9.50" shape="66.65,60.25 66.65,69.75"/>
    </edge>
    <edge id=":16_10" function="internal">
        <lane id=":16_10_0" index="0" speed="13.90" length="5.28" shape="66.65,60.25 66.25,63.05 65.05,65.05 64.95,65.11"/>
    </edge>
    <edge id=":16_11" function="internal">
        <lane id=":16_11_0" index="0" speed="13.90" length="2.41" shape="66.65,60.25 65.83,61.49 65.00,61.90"/>
    </edge>
    <edge id=":16_18" function="internal">
        <lane id=":16_18_0" index="0" speed="13.90" length="5.04" shape="64.95,65.11 63.05,66.25 60.25,66.65"/>
    </edge>
    <edge id=":16_19" function="internal">
        <lane id=":16_19_0" index="0" speed="13.90" length="2.41" shape="65.00,61.90 64.17,61.49 63.35,60.25"/>
    </edge>
    <edge id=":16_12" function="internal">
        <lane id=":16_12_0" index="0" speed="13.90" length="5.00" shape="60.25,63.35 61.61,63.16 62.57,62.58 63.16,61.61 63.35,60.25"/>
    </edge>
    <edge id=":16_13" function="internal">
        <lane id=":16_13_0" index="0" speed="13.90" length="9.50" shape="60.25,63.35 69.75,63.35"/>
    </edge>
    <edge id=":16_14" function="internal">
        <lane id=":16_14_0" index="0" speed="13.90" length="10.32" shape="60.25,63.35 63.05,63.75 65.05,64.95 66.25,66.95 66.65,69.75"/>
    </edge>
    <edge id=":16_15" function="internal">
        <lane id=":16_15_0" index="0" speed="13.90" length="4.82" shape="60.25,63.35 61.49,64.17 61.90,65.00 61.49,65.83 60.25,66.65"/>
    </edge>
    <edge id=":17_0" function="internal">
        <lane id=":17_0_0" index="0" speed="13.90" length="5.00" shape="128.35,69.75 128.16,68.39 127.57,67.43 126.61,66.84 125.25,66.65"/>
    </edge>
    <edge id=":17_1" function="internal">
        <lane id=":17_1_0" index="0" speed="13.90" length="9.50" shape="128.35,69.75 128.35,60.25"/>
    </edge>
    <edge id=":17_2" function="internal">
        <lane id=":17_2_0" index="0" speed="13.90" length="5.28" shape="128.35,69.75 128.75,66.95 129.95,64.95 130.05,64.89"/>
    </edge>
    <edge id=":17_3" function="internal">
        <lane id=":17_3_0" index="0" speed="13.90" length="2.41" shape="128.35,69.75 129.17,68.51 130.00,68.10"/>
    </edge>
    <edge id=":17_16" function="internal">
        <lane id=":17_16_0" index="0" speed="13.90" length="5.04" shape="130.05,64.89 131.95,63.75 134.75,63.35"/>
    </edge>
    <edge id=":17_17" function="internal">
        <lane id=":17_17_0" index="0" speed="13.90" length="2.41" shape="130.00,68.10 130.83,68.51 131.65,69.75"/>
    </edge>
    <edge id=":17_4" function="internal">
        <lane id=":17_4_0" index="0" speed="13.90" length="5.00" shape="134.75,66.65 133.39,66.84 132.43,67.43 131.84,68.39 131.65,69.75"/>
    </edge>
    <edge id=":17_5" function="internal">
        <lane id=":17_5_0" index="0" speed="13.90" length="9.50" shape="134.75,66.65 125.25,66.65"/>
    </edge>
    <edge id=":17_6" function="internal">
        <lane id=":17_6_0" index="0" speed="13.90" length="10.32" shape="134.75,66.65 131.95,66.25 129.95,65.05 128.75,63.05 128.35,60.25"/>
    </edge>
    <edge id=":17_7" function="internal">
        <lane id=":17_7_0" index="0" speed="13.90" length="4.82" shape="134.75,66.65 133.51,65.83 133.10,65.00 133.51,64.17 134.75,63.35"/>
    </edge>
    <edge id=":17_8" function="internal">
        <lane id=":17_8_0" index="0" speed="13.90" length="5.00" shape="131.65,60.25 131.84,61.61 132.43,62.57 133.39,63.16 134.75,63.35"/>
    </edge>
    <edge id=":17_9" function="internal">
        <lane id=":17_9_0" index="0" speed="13.90" length="9.50" shape="131.65,60.25 131.65,69.75"/>
    </edge>
    <edge id=":17_10" function="internal">
        <lane id=":17_10_0" index="0" speed="13.90" length="5.28" shape="131.65,60.25 131.25,63.05 130.05,65.05 129.95,65.11"/>
    </edge>
    <edge id=":17_11" function="internal">
        <lane id=":17_11_0" index="0" speed="13.90" length="2.41" shape="131.65,60.25 130.83,61.49 130.00,61.90"/>
    </edge>
    <edge id=":17_18" function="internal">
        <lane id=":17_18_0" index="0" speed="13.90" length="5.04" shape="129.95,65.11 128.05,66.25 125.25,66.65"/>
    </edge>
    <edge id=":17_19" function="internal">
        <lane id=":17_19_0" index="0" speed="13.90" length="2.41" shape="130.00,61.90 129.17,61.49 128.35,60.25"/>
    </edge>
    <edge id=":17_12" function="internal">
        <lane id=":17_12_0" index="0" speed="13.90" length="5.00" shape="125.25,63.35 126.61,63.16 127.57,62.58 128.16,61.61 128.35,60.25"/>
    </edge>
    <edge id=":17_13" function="internal">
        <lane id=":17_13_0" index="0" speed="13.90" length="9.50" shape="125.25,63.35 134.75,63.35"/>
    </edge>
    <edge id=":17_14" function="internal">
        <lane id=":17_14_0" index="0" speed="13.90" length="10.32" shape="125.25,63.35 128.05,63.75 130.05,64.95 131.25,66.95 131.65,69.75"/>
    </edge>
    <edge id=":17_15" function="internal">
        <lane id=":17_15_0" index="0" speed="13.90" length="4.82" shape="125.25,63.35 126.49,64.17 126.90,65.00 126.49,65.83 125.25,66.65"/>
    </edge>
    <edge id=":18_0" function="internal">
        <lane id=":18_0_0" index="0" speed="13.90" length="5.00" shape="193.35,69.75 193.16,68.39 192.57,67.43 191.61,66.84 190.25,66.65"/>
    </edge>
    <edge id=":18_1" function="internal">
        <lane id=":18_1_0" index="0" speed="13.90" length="9.50" shape="193.35,69.75 193.35,60.25"/>
    </edge>
    <edge id=":18_2" function="internal">
        <lane id=":18_2_0" index="0" speed="13.90" length="5.28" shape="193.35,69.75 193.75,66.95 194.95,64.95 195.05,64.89"/>
    </edge>
    <edge id=":18_3" function="internal">
        <lane id=":18_3_0" index="0" speed="13.90" length="2.41" shape="193.35,69.75 194.17,68.51 195.00,68.10"/>
    </edge>
    <edge id=":18_16" function="internal">
        <lane id=":18_16_0" index="0" speed="13.90" length="5.04" shape="195.05,64.89 196.95,63.75 199.75,63.35"/>
    </edge>
    <edge id=":18_17" function="internal">
        <lane id=":18_17_0" index="0" speed="13.90" length="2.41" shape="195.00,68.10 195.82,68.51 196.65,69.75"/>
    </edge>
    <edge id=":18_4" function="internal">
        <lane id=":18_4_0" index="0" speed="13.90" length="5.00" shape="199.75,66.65 198.39,66.84 197.42,67.43 196.84,68.39 196.65,69.75"/>
    </edge>
    <edge id=":18_5" function="internal">
        <lane id=":18_5_0" index="0" speed="13.90" length="9.50" shape="199.75,66.65 190.25,66.65"/>
    </edge>
    <edge id=":18_6" function="internal">
        <lane id=":18_6_0" index="0" speed="13.90" length="10.32" shape="199.75,66.65 196.95,66.25 194.95,65.05 193.75,63.05 193.35,60.25"/>
    </edge>
    <edge id=":18_7" function="internal">
        <lane id=":18_7_0" index="0" speed="13.90" length="4.82" shape="199.75,66.65 198.51,65.83 198.10,65.00 198.51,64.17 199.75,63.35"/>
    </edge>
    <edge id=":18_8" function="internal">