<?xml version="1.0" encoding="UTF-8"?>

<!-- generated on Tuesday 07 August 2018 10:38:39 PM IST by Netedit Version 0.25.0
<?xml version="1.0" encoding="UTF-8"?>

<configuration xmlns:xsi="http://www.w3.org/2001/XMLSchema-instance" xsi:noNamespaceSchemaLocation="http://sumo.dlr.de/xsd/netedit.exeConfiguration.xsd">

    <input>
        <sumo-net-file value="/home/sumanth/Documents/Projects/SysCon/SUMO/sumo/tests/complex/tutorial/traci_tls/data/test.net.xml"/>
    </input>

    <output>
        <output-file value="/home/sumanth/Documents/Projects/SysCon/SUMO/sumo/tests/complex/tutorial/traci_tls/data/test.net.xml"/>
    </output>

    <processing>
        <no-turnarounds value="true"/>
        <offset.disable-normalization value="true"/>
        <lefthand value="false"/>
        <junctions.corner-detail value="0"/>
    </processing>

</configuration>
-->

<net version="0.25" xmlns:xsi="http://www.w3.org/2001/XMLSchema-instance" xsi:noNamespaceSchemaLocation="http://sumo.dlr.de/xsd/net_file.xsd">

    <location netOffset="0.00,0.00" convBoundary="-164.31,-77.22,220.22,108.49" origBoundary="-10000000000.00,-10000000000.00,10000000000.00,10000000000.00" projParameter="!"/>

    <edge id=":0_0" function="internal">
        <lane id=":0_0_0" index="0" speed="13.89" length="20.11" shape="-120.61,101.40 -127.59,100.68 -132.61,99.00 -135.68,96.38 -136.79,92.79"/>
    </edge>
    <edge id=":0_1" function="internal">
        <lane id=":0_1_0" index="0" speed="13.89" length="12.52" shape="-120.61,101.40 -128.59,100.53 -131.61,98.58 -131.14,97.83"/>
    </edge>
    <edge id=":0_6" function="internal">
        <lane id=":0_6_0" index="0" speed="13.89" length="10.74" shape="-131.14,97.83 -129.69,95.54 -122.81,91.40"/>
    </edge>
    <edge id=":0_2" function="internal">
        <lane id=":0_2_0" index="0" speed="13.89" length="8.72" shape="-121.33,94.35 -123.91,95.90 -124.63,97.04 -123.50,97.78 -120.51,98.10"/>
    </edge>
    <edge id=":0_3" function="internal">
        <lane id=":0_3_0" index="0" speed="13.89" length="18.99" shape="-121.33,94.35 -127.98,97.10 -132.78,97.76 -135.72,96.32 -136.79,92.79"/>
    </edge>
    <edge id=":0_4" function="internal">
        <lane id=":0_4_0" index="0" speed="13.89" length="12.13" shape="-133.50,92.69 -132.78,94.11 -130.76,94.36 -127.43,93.46 -122.81,91.40"/>
    </edge>
    <edge id=":0_5" function="internal">
        <lane id=":0_5_0" index="0" speed="13.89" length="15.16" shape="-133.50,92.69 -132.62,94.91 -130.17,96.55 -126.13,97.62 -120.51,98.10"/>
    </edge>
    <edge id=":1_0" function="internal">
        <lane id=":1_0_0" index="0" speed="13.89" length="25.23" shape="163.41,90.73 164.22,99.22 162.92,105.23 159.49,108.76 153.95,109.80"/>
    </edge>
    <edge id=":1_1" function="internal">
        <lane id=":1_1_0" index="0" speed="13.89" length="12.05" shape="163.41,90.73 163.93,99.24 161.87,102.09"/>
    </edge>
    <edge id=":1_2" function="internal">
        <lane id=":1_2_0" index="0" speed="13.89" length="14.53" shape="163.41,90.73 164.49,100.30 162.84,103.47 161.77,102.68"/>
    </edge>
    <edge id=":1_12" function="internal">
        <lane id=":1_12_0" index="0" speed="13.89" length="17.73" shape="161.87,102.09 161.30,102.88 155.50,101.65 146.55,95.55"/>
    </edge>
    <edge id=":1_13" function="internal">
        <lane id=":1_13_0" index="0" speed="13.89" length="16.15" shape="161.77,102.68 158.44,100.22 151.31,90.56"/>
    </edge>
    <edge id=":1_3" function="internal">
        <lane id=":1_3_0" index="0" speed="13.89" length="13.13" shape="154.06,88.74 157.41,93.38 159.54,95.37 160.46,94.69 160.17,91.35"/>
    </edge>
    <edge id=":1_4" function="internal">
        <lane id=":1_4_0" index="0" speed="13.89" length="27.44" shape="154.06,88.74 159.38,98.12 161.14,104.75 159.33,108.65 153.95,109.80"/>
    </edge>
    <edge id=":1_5" function="internal">
        <lane id=":1_5_0" index="0" speed="13.89" length="34.86" shape="154.06,88.74 160.48,99.58 161.36,104.33 156.72,102.99 146.55,95.55"/>
    </edge>
    <edge id=":1_6" function="internal">
        <lane id=":1_6_0" index="0" speed="13.89" length="12.44" shape="148.63,92.99 152.26,95.64 153.91,96.12 153.60,94.43 151.31,90.56"/>
    </edge>
    <edge id=":1_7" function="internal">
        <lane id=":1_7_0" index="0" speed="13.89" length="19.03" shape="148.63,92.99 154.61,97.15 158.53,98.27 160.38,96.33 160.17,91.35"/>
    </edge>
    <edge id=":1_8" function="internal">
        <lane id=":1_8_0" index="0" speed="13.89" length="26.69" shape="148.63,92.99 156.97,100.53 160.64,105.84 159.63,108.93 153.95,109.80"/>
    </edge>
    <edge id=":1_9" function="internal">
        <lane id=":1_9_0" index="0" speed="13.89" length="16.18" shape="154.05,106.50 155.93,105.89 155.30,103.86 152.18,100.41 146.55,95.55"/>
    </edge>
    <edge id=":1_10" function="internal">
        <lane id=":1_10_0" index="0" speed="13.89" length="19.51" shape="154.05,106.50 156.87,105.59 157.34,102.64 155.49,97.62 151.31,90.56"/>
    </edge>
    <edge id=":1_11" function="internal">
        <lane id=":1_11_0" index="0" speed="13.89" length="19.10" shape="154.05,106.50 157.84,105.66 160.12,102.85 160.90,98.08 160.17,91.35"/>
    </edge>
    <edge id=":10_0" function="internal">
        <lane id=":10_0_0" index="0" speed="13.89" length="14.93" shape="216.89,-55.01 215.98,-56.32 213.37,-56.60 209.04,-55.83 202.99,-54.02"/>
    </edge>
    <edge id=":10_1" function="internal">
        <lane id=":10_1_0" index="0" speed="13.89" length="17.32" shape="216.89,-55.01 215.88,-57.04 212.99,-58.70 208.19,-59.97 201.50,-60.87"/>
    </edge>
    <edge id=":10_2" function="internal">
        <lane id=":10_2_0" index="0" speed="13.89" length="21.99" shape="201.80,-64.16 209.78,-62.96 215.50,-61.05 218.97,-58.42 220.19,-55.09"/>
    </edge>
    <edge id=":10_3" function="internal">
        <lane id=":10_3_0" index="0" speed="13.89" length="13.96" shape="201.80,-64.16 211.06,-62.67 214.34,-60.49 213.90,-60.02"/>
    </edge>
    <edge id=":10_6" function="internal">
        <lane id=":10_6_0" index="0" speed="13.89" length="12.67" shape="213.90,-60.02 211.65,-57.60 202.99,-54.02"/>
    </edge>
    <edge id=":10_4" function="internal">
        <lane id=":10_4_0" index="0" speed="13.89" length="9.79" shape="201.94,-57.14 205.12,-58.46 206.11,-59.52 204.90,-60.32 201.50,-60.87"/>
    </edge>
    <edge id=":10_5" function="internal">
        <lane id=":10_5_0" index="0" speed="13.89" length="21.02" shape="201.94,-57.14 209.84,-59.30 215.52,-59.68 218.97,-58.28 220.19,-55.09"/>
    </edge>
    <edge id=":11_0" function="internal">
        <lane id=":11_0_0" index="0" speed="13.89" length="7.27" shape="221.80,9.54 221.57,11.49 220.80,12.97 219.46,13.98 217.57,14.51"/>
    </edge>
    <edge id=":11_1" function="internal">
        <lane id=":11_1_0" index="0" speed="13.89" length="2.37" shape="217.12,11.25 217.74,11.07 218.17,10.74 218.43,10.26 218.50,9.62"/>
    </edge>
    <edge id=":12_0" function="internal">
        <lane id=":12_0_0" index="0" speed="13.89" length="6.03" shape="147.93,27.59 147.46,25.73 146.86,24.25 146.10,23.13 145.21,22.38"/>
    </edge>
    <edge id=":12_1" function="internal">
        <lane id=":12_1_0" index="0" speed="13.89" length="10.58" shape="147.93,27.59 147.79,24.68 148.63,22.46 150.46,20.95 153.27,20.14"/>
    </edge>
    <edge id=":12_2" function="internal">
        <lane id=":12_2_0" index="0" speed="13.89" length="5.06" shape="153.72,23.41 152.38,23.79 151.51,24.52 151.10,25.58 151.17,26.97"/>
    </edge>
    <edge id=":12_3" function="internal">
        <lane id=":12_3_0" index="0" speed="13.89" length="8.57" shape="153.72,23.41 145.21,22.38"/>
    </edge>
    <edge id=":12_4" function="internal">
        <lane id=":12_4_0" index="0" speed="13.89" length="6.43" shape="146.86,19.53 153.27,20.14"/>
    </edge>
    <edge id=":12_5" function="internal">
        <lane id=":12_5_0" index="0" speed="13.89" length="2.51" shape="146.86,19.53 148.35,20.69 148.72,21.19"/>
    </edge>
    <edge id=":12_6" function="internal">
        <lane id=":12_6_0" index="0" speed="13.89" length="6.35" shape="148.72,21.19 149.56,22.32 150.50,24.42 151.17,26.97"/>
    </edge>
    <edge id=":2_0" function="internal">
        <lane id=":2_0_0" index="0" speed="13.89" length="10.22" shape="-138.27,47.45 -138.42,44.45 -138.67,42.36 -139.12,40.30 -139.85,37.38"/>
    </edge>
    <edge id=":2_1" function="internal">
        <lane id=":2_1_0" index="0" speed="13.89" length="4.19" shape="-138.27,47.45 -137.52,44.53 -136.83,43.58"/>
    </edge>
    <edge id=":2_2" function="internal">
        <lane id=":2_2_0" index="0" speed="13.89" length="3.63" shape="-138.27,47.45 -137.33,44.70 -136.74,44.27"/>
    </edge>
    <edge id=":2_12" function="internal">
        <lane id=":2_12_0" index="0" speed="13.89" length="15.74" shape="-136.83,43.58 -135.08,41.18 -130.96,37.40 -125.15,33.18"/>
    </edge>
    <edge id=":2_13" function="internal">
        <lane id=":2_13_0" index="0" speed="13.89" length="15.73" shape="-136.74,44.27 -134.30,42.46 -129.19,40.73 -122.00,39.50"/>
    </edge>
    <edge id=":2_3" function="internal">
        <lane id=":2_3_0" index="0" speed="13.89" length="14.66" shape="-121.61,42.78 -127.49,43.66 -131.68,44.71 -134.18,45.94 -134.97,47.34"/>
    </edge>
    <edge id=":2_4" function="internal">
        <lane id=":2_4_0" index="0" speed="13.89" length="20.55" shape="-121.61,42.78 -128.90,43.17 -134.38,42.40 -138.02,40.47 -139.85,37.38"/>
    </edge>
    <edge id=":2_5" function="internal">
        <lane id=":2_5_0" index="0" speed="13.89" length="24.21" shape="-121.61,42.78 -130.01,43.15 -133.40,41.67 -131.78,38.35 -125.15,33.18"/>
    </edge>
    <edge id=":2_6" function="internal">
        <lane id=":2_6_0" index="0" speed="13.89" length="9.02" shape="-123.32,35.92 -125.79,37.85 -126.39,39.09 -125.13,39.64 -122.00,39.50"/>
    </edge>
    <edge id=":2_7" function="internal">
        <lane id=":2_7_0" index="0" speed="13.89" length="16.66" shape="-123.32,35.92 -128.46,39.58 -132.12,42.70 -134.29,45.29 -134.97,47.34"/>
    </edge>
    <edge id=":2_8" function="internal">
        <lane id=":2_8_0" index="0" speed="13.89" length="19.51" shape="-123.32,35.92 -129.78,39.64 -134.69,41.12 -138.05,40.37 -139.85,37.38"/>
    </edge>
    <edge id=":2_9" function="internal">
        <lane id=":2_9_0" index="0" speed="13.89" length="13.14" shape="-136.65,36.58 -135.59,37.74 -133.32,37.56 -129.84,36.04 -125.15,33.18"/>
    </edge>
    <edge id=":2_10" function="internal">
        <lane id=":2_10_0" index="0" speed="13.89" length="15.85" shape="-136.65,36.58 -135.31,38.46 -132.42,39.57 -127.99,39.92 -122.00,39.50"/>
    </edge>
    <edge id=":2_11" function="internal">
        <lane id=":2_11_0" index="0" speed="13.89" length="10.92" shape="-136.65,36.58 -135.90,39.60 -135.42,41.90 -135.13,44.23 -134.97,47.34"/>
    </edge>
    <edge id=":3_0" function="internal">
        <lane id=":3_0_0" index="0" speed="13.89" length="10.80" shape="-53.09,67.91 -56.86,66.43 -59.85,65.52 -62.03,65.18 -63.43,65.40"/>
    </edge>
    <edge id=":3_1" function="internal">
        <lane id=":3_1_0" index="0" speed="13.89" length="17.11" shape="-53.09,67.91 -57.92,65.23 -59.49,62.63 -57.79,60.12 -52.83,57.69"/>
    </edge>
    <edge id=":3_2" function="internal">
        <lane id=":3_2_0" index="0" speed="13.89" length="6.82" shape="-51.70,60.80 -53.68,61.76 -54.36,62.76 -53.74,63.80 -51.81,64.87"/>
    </edge>
    <edge id=":3_3" function="internal">
        <lane id=":3_3_0" index="0" speed="13.89" length="12.61" shape="-51.70,60.80 -54.89,61.92 -57.65,62.89 -60.37,63.97 -63.43,65.40"/>
    </edge>
    <edge id=":3_4" function="internal">
        <lane id=":3_4_0" index="0" speed="13.89" length="12.99" shape="-64.91,62.44 -61.79,61.00 -58.95,59.87 -56.07,58.84 -52.83,57.69"/>
    </edge>
    <edge id=":3_5" function="internal">
        <lane id=":3_5_0" index="0" speed="13.89" length="4.76" shape="-64.91,62.44 -62.83,61.97 -60.21,62.19"/>
    </edge>
    <edge id=":3_6" function="internal">
        <lane id=":3_6_0" index="0" speed="13.89" length="8.84" shape="-60.21,62.19 -59.95,62.21 -56.28,63.18 -51.81,64.87"/>
    </edge>
    <edge id=":4_0" function="internal">
        <lane id=":4_0_0" index="0" speed="13.89" length="6.35" shape="2.97,87.71 1.74,88.86 0.38,89.48 -1.11,89.57 -2.73,89.13"/>
    </edge>
    <edge id=":4_1" function="internal">
        <lane id=":4_1_0" index="0" speed="13.89" length="2.07" shape="-1.45,86.08 -0.92,86.23 -0.43,86.20 0.01,86.00 0.41,85.62"/>
    </edge>
    <edge id=":5_0" function="internal">
        <lane id=":5_0_0" index="0" speed="13.89" length="12.69" shape="58.66,24.35 57.15,24.06 55.02,25.14 52.28,27.59 48.92,31.40"/>
    </edge>
    <edge id=":5_1" function="internal">
        <lane id=":5_1_0" index="0" speed="13.89" length="31.24" shape="58.66,24.35 55.68,23.92 49.67,25.01 40.65,27.62 28.61,31.76"/>
    </edge>
    <edge id=":5_2" function="internal">
        <lane id=":5_2_0" index="0" speed="13.89" length="32.20" shape="58.66,24.35 55.49,23.45 49.10,23.30 39.49,23.89 26.68,25.22"/>
    </edge>
    <edge id=":5_3" function="internal">
        <lane id=":5_3_0" index="0" speed="13.89" length="25.23" shape="58.66,24.35 53.94,22.07 46.98,20.05 39.82,18.43 34.53,17.36"/>
    </edge>
    <edge id=":5_4" function="internal">
        <lane id=":5_4_0" index="0" speed="13.89" length="10.25" shape="58.66,24.35 56.74,22.30 55.92,20.11 56.19,17.81 57.56,15.38"/>
    </edge>
    <edge id=":5_5" function="internal">
        <lane id=":5_5_0" index="0" speed="13.89" length="5.02" shape="60.18,17.40 59.51,18.58 59.38,19.71 59.79,20.78 60.74,21.79"/>
    </edge>
    <edge id=":5_6" function="internal">
        <lane id=":5_6_0" index="0" speed="13.89" length="17.97" shape="60.18,17.40 57.58,20.71 54.59,24.43 51.58,28.14 48.92,31.40"/>
    </edge>
    <edge id=":5_7" function="internal">
        <lane id=":5_7_0" index="0" speed="13.89" length="34.79" shape="60.18,17.40 54.62,21.07 45.01,25.42 35.10,29.35 28.61,31.76"/>
    </edge>
    <edge id=":5_8" function="internal">
        <lane id=":5_8_0" index="0" speed="13.89" length="4.57" shape="60.18,17.40 56.86,19.48 56.24,19.66"/>
    </edge>
    <edge id=":5_9" function="internal">
        <lane id=":5_9_0" index="0" speed="13.89" length="4.00" shape="60.18,17.40 57.27,19.09 56.64,19.16"/>
    </edge>
    <edge id=":5_30" function="internal">
        <lane id=":5_30_0" index="0" speed="13.89" length="30.13" shape="56.24,19.66 50.17,21.48 40.11,23.39 26.68,25.22"/>
    </edge>
    <edge id=":5_31" function="internal">
        <lane id=":5_31_0" index="0" speed="13.89" length="22.30" shape="56.64,19.16 52.03,19.64 44.45,19.07 34.53,17.36"/>
    </edge>
    <edge id=":5_10" function="internal">
        <lane id=":5_10_0" index="0" speed="13.89" length="22.77" shape="35.20,14.12 44.15,15.76 50.86,16.51 55.33,16.39 57.56,15.38"/>
    </edge>
    <edge id=":5_11" function="internal">
        <lane id=":5_11_0" index="0" speed="13.89" length="26.77" shape="35.20,14.12 40.71,15.30 48.35,17.15 55.80,19.41 60.74,21.79"/>
    </edge>
    <edge id=":5_12" function="internal">
        <lane id=":5_12_0" index="0" speed="13.89" length="28.37" shape="35.20,14.12 44.99,17.04 50.54,20.89 51.85,25.68 48.92,31.40"/>
    </edge>
    <edge id=":5_13" function="internal">
        <lane id=":5_13_0" index="0" speed="13.89" length="36.10" shape="35.20,14.12 44.87,17.30 46.99,21.30 41.57,26.11 28.61,31.76"/>
    </edge>
    <edge id=":5_14" function="internal">
        <lane id=":5_14_0" index="0" speed="13.89" length="37.94" shape="35.20,14.12 46.35,17.22 48.64,20.10 42.09,22.77 26.68,25.22"/>
    </edge>
    <edge id=":5_15" function="internal">
        <lane id=":5_15_0" index="0" speed="13.89" length="17.01" shape="26.29,21.95 34.08,20.80 38.05,19.65 38.20,18.50 34.53,17.36"/>
    </edge>
    <edge id=":5_16" function="internal">
        <lane id=":5_16_0" index="0" speed="13.89" length="32.15" shape="26.29,21.95 39.06,20.26 48.53,18.60 54.70,16.97 57.56,15.38"/>
    </edge>
    <edge id=":5_17" function="internal">
        <lane id=":5_17_0" index="0" speed="13.89" length="34.75" shape="26.29,21.95 39.78,20.60 50.02,20.12 57.00,20.52 60.74,21.79"/>
    </edge>
    <edge id=":5_18" function="internal">
        <lane id=":5_18_0" index="0" speed="13.89" length="33.31" shape="26.29,21.95 40.30,21.05 48.74,22.32 51.61,25.78 48.92,31.40"/>
    </edge>
    <edge id=":5_19" function="internal">
        <lane id=":5_19_0" index="0" speed="13.89" length="45.28" shape="26.29,21.95 42.85,20.62 48.76,21.81 44.01,25.52 28.61,31.76"/>
    </edge>
    <edge id=":5_20" function="internal">
        <lane id=":5_20_0" index="0" speed="13.89" length="15.82" shape="27.49,28.65 32.87,26.47 34.53,25.18 32.46,24.76 26.68,25.22"/>
    </edge>
    <edge id=":5_21" function="internal">
        <lane id=":5_21_0" index="0" speed="13.89" length="23.07" shape="27.49,28.65 36.35,24.90 40.48,21.77 39.88,19.25 34.53,17.36"/>
    </edge>
    <edge id=":5_22" function="internal">
        <lane id=":5_22_0" index="0" speed="13.89" length="32.99" shape="27.49,28.65 33.74,26.42 43.15,22.86 52.24,18.89 57.56,15.38"/>
    </edge>
    <edge id=":5_23" function="internal">
        <lane id=":5_23_0" index="0" speed="13.89" length="34.46" shape="27.49,28.65 40.38,24.31 50.22,21.72 57.01,20.88 60.74,21.79"/>
    </edge>
    <edge id=":5_24" function="internal">
        <lane id=":5_24_0" index="0" speed="13.89" length="32.93" shape="27.49,28.65 41.42,24.27 49.64,23.27 52.14,25.65 48.92,31.40"/>
    </edge>
    <edge id=":5_25" function="internal">
        <lane id=":5_25_0" index="0" speed="13.89" length="21.13" shape="46.36,29.32 46.98,27.35 44.23,27.10 38.10,28.57 28.61,31.76"/>
    </edge>
    <edge id=":5_26" function="internal">
        <lane id=":5_26_0" index="0" speed="13.89" length="24.18" shape="46.36,29.32 47.30,26.40 44.34,24.74 37.46,24.35 26.68,25.22"/>
    </edge>
    <edge id=":5_27" function="internal">
        <lane id=":5_27_0" index="0" speed="13.89" length="20.99" shape="46.36,29.32 48.12,25.51 46.73,22.25 42.20,19.53 34.53,17.36"/>
    </edge>
    <edge id=":5_28" function="internal">
        <lane id=":5_28_0" index="0" speed="13.89" length="17.88" shape="46.36,29.32 49.01,26.06 52.00,22.38 54.97,18.69 57.56,15.38"/>
    </edge>
    <edge id=":5_29" function="internal">
        <lane id=":5_29_0" index="0" speed="13.89" length="11.47" shape="46.36,29.32 50.79,24.52 54.67,21.66 54.79,21.63"/>
    </edge>
    <edge id=":5_32" function="internal">
        <lane id=":5_32_0" index="0" speed="13.89" length="6.26" shape="54.79,21.63 57.98,20.75 60.74,21.79"/>
    </edge>
    <edge id=":6_0" function="internal">
        <lane id=":6_0_0" index="0" speed="13.89" length="29.18" shape="-40.88,1.85 -51.65,-0.10 -60.04,-1.04 -66.05,-0.95 -69.67,0.16"/>
    </edge>
    <edge id=":6_1" function="internal">
        <lane id=":6_1_0" index="0" speed="13.89" length="31.95" shape="-40.88,1.85 -47.14,0.43 -56.46,-1.91 -65.66,-4.56 -71.55,-6.91"/>
    </edge>
    <edge id=":6_2" function="internal">
        <lane id=":6_2_0" index="0" speed="13.89" length="29.96" shape="-40.88,1.85 -52.42,-1.33 -58.56,-5.00 -59.30,-9.17 -54.64,-13.84"/>
    </edge>
    <edge id=":6_3" function="internal">
        <lane id=":6_3_0" index="0" speed="13.89" length="38.54" shape="-40.88,1.85 -54.47,-1.59 -58.89,-4.41 -54.14,-6.63 -40.21,-8.25"/>
    </edge>
    <edge id=":6_4" function="internal">
        <lane id=":6_4_0" index="0" speed="13.89" length="13.63" shape="-39.98,-4.96 -44.90,-4.39 -46.59,-3.60 -45.02,-2.60 -40.21,-1.38"/>
    </edge>
    <edge id=":6_5" function="internal">
        <lane id=":6_5_0" index="0" speed="13.89" length="30.23" shape="-39.98,-4.96 -46.13,-4.40 -55.13,-3.31 -63.97,-1.76 -69.67,0.16"/>
    </edge>
    <edge id=":6_6" function="internal">
        <lane id=":6_6_0" index="0" speed="13.89" length="31.78" shape="-39.98,-4.96 -46.42,-4.74 -56.05,-4.80 -65.54,-5.43 -71.55,-6.91"/>
    </edge>
    <edge id=":6_7" function="internal">
        <lane id=":6_7_0" index="0" speed="13.89" length="29.68" shape="-39.98,-4.96 -52.62,-4.68 -59.28,-6.07 -59.95,-9.13 -54.64,-13.84"/>
    </edge>
    <edge id=":6_8" function="internal">
        <lane id=":6_8_0" index="0" speed="13.89" length="16.85" shape="-52.81,-11.10 -54.37,-9.35 -52.79,-8.29 -48.07,-7.93 -40.21,-8.25"/>
    </edge>
    <edge id=":6_9" function="internal">
        <lane id=":6_9_0" index="0" speed="13.89" length="20.66" shape="-52.81,-11.10 -55.08,-8.45 -53.74,-5.95 -48.78,-3.59 -40.21,-1.38"/>
    </edge>
    <edge id=":6_10" function="internal">
        <lane id=":6_10_0" index="0" speed="13.89" length="20.27" shape="-52.81,-11.10 -56.61,-8.56 -61.24,-5.47 -65.86,-2.38 -69.67,0.16"/>
    </edge>
    <edge id=":6_11" function="internal">
        <lane id=":6_11_0" index="0" speed="13.89" length="11.94" shape="-52.81,-11.10 -58.60,-7.75 -63.54,-5.97"/>
    </edge>
    <edge id=":6_20" function="internal">
        <lane id=":6_20_0" index="0" speed="13.89" length="8.24" shape="-63.54,-5.97 -63.66,-5.93 -67.97,-5.65 -71.55,-6.91"/>
    </edge>
    <edge id=":6_12" function="internal">
        <lane id=":6_12_0" index="0" speed="13.89" length="16.42" shape="-69.79,-9.70 -67.12,-8.87 -63.70,-9.28 -59.54,-10.94 -54.64,-13.84"/>
    </edge>
    <edge id=":6_13" function="internal">
        <lane id=":6_13_0" index="0" speed="13.89" length="29.77" shape="-69.79,-9.70 -64.09,-8.30 -55.29,-7.84 -46.34,-7.95 -40.21,-8.25"/>
    </edge>
    <edge id=":6_14" function="internal">
        <lane id=":6_14_0" index="0" speed="13.89" length="30.78" shape="-69.79,-9.70 -64.08,-7.42 -55.25,-4.92 -46.31,-2.73 -40.21,-1.38"/>
    </edge>
    <edge id=":6_15" function="internal">
        <lane id=":6_15_0" index="0" speed="13.89" length="12.82" shape="-69.79,-9.70 -66.91,-7.27 -65.93,-4.82 -66.85,-2.34 -69.67,0.16"/>
    </edge>
    <edge id=":6_16" function="internal">
        <lane id=":6_16_0" index="0" speed="13.89" length="5.62" shape="-71.50,-2.59 -70.26,-3.68 -69.86,-4.77 -70.29,-5.84 -71.55,-6.91"/>
    </edge>
    <edge id=":6_17" function="internal">
        <lane id=":6_17_0" index="0" speed="13.89" length="20.27" shape="-71.50,-2.59 -67.69,-5.13 -63.07,-8.21 -58.44,-11.30 -54.64,-13.84"/>
    </edge>
    <edge id=":6_18" function="internal">
        <lane id=":6_18_0" index="0" speed="13.89" length="31.89" shape="-71.50,-2.59 -65.55,-4.59 -56.16,-6.33 -46.62,-7.60 -40.21,-8.25"/>
    </edge>
    <edge id=":6_19" function="internal">
        <lane id=":6_19_0" index="0" speed="13.89" length="5.50" shape="-71.50,-2.59 -67.29,-4.01 -66.23,-4.06"/>
    </edge>
    <edge id=":6_21" function="internal">
        <lane id=":6_21_0" index="0" speed="13.89" length="26.25" shape="-66.23,-4.06 -60.68,-4.29 -51.65,-3.41 -40.21,-1.38"/>
    </edge>
    <edge id=":7_0" function="internal">
        <lane id=":7_0_0" index="0" speed="13.89" length="19.40" shape="-163.58,-57.56 -163.95,-62.52 -162.24,-66.16 -158.45,-68.48 -152.58,-69.48"/>
    </edge>
    <edge id=":7_1" function="internal">
        <lane id=":7_1_0" index="0" speed="13.89" length="10.73" shape="-163.58,-57.56 -164.20,-62.84 -162.71,-65.40 -160.26,-65.29"/>
    </edge>
    <edge id=":7_6" function="internal">
        <lane id=":7_6_0" index="0" speed="13.89" length="7.53" shape="-160.26,-65.29 -159.12,-65.24 -153.42,-62.36"/>
    </edge>
    <edge id=":7_2" function="internal">
        <lane id=":7_2_0" index="0" speed="13.89" length="8.23" shape="-155.18,-59.56 -157.96,-61.03 -159.75,-61.32 -160.56,-60.43 -160.38,-58.36"/>
    </edge>
    <edge id=":7_3" function="internal">
        <lane id=":7_3_0" index="0" speed="13.89" length="19.79" shape="-155.18,-59.56 -160.44,-63.59 -161.75,-66.59 -159.13,-68.55 -152.58,-69.48"/>
    </edge>
    <edge id=":7_4" function="internal">
        <lane id=":7_4_0" index="0" speed="13.89" length="7.63" shape="-152.42,-66.18 -154.95,-65.82 -155.96,-65.07 -155.45,-63.91 -153.42,-62.36"/>
    </edge>
    <edge id=":7_5" function="internal">
        <lane id=":7_5_0" index="0" speed="13.89" length="13.30" shape="-152.42,-66.18 -156.59,-65.51 -159.31,-63.99 -160.57,-61.60 -160.38,-58.36"/>
    </edge>
    <edge id=":8_0" function="internal">
        <lane id=":8_0_0" index="0" speed="13.89" length="14.68" shape="90.36,-1.64 86.98,-6.07 84.01,-8.50 81.44,-8.94 79.27,-7.39"/>
    </edge>
    <edge id=":8_1" function="internal">
        <lane id=":8_1_0" index="0" speed="13.89" length="20.22" shape="90.36,-1.64 86.42,-6.84 82.49,-10.48 78.59,-12.55 74.70,-13.06"/>
    </edge>
    <edge id=":8_2" function="internal">
        <lane id=":8_2_0" index="0" speed="13.89" length="22.33" shape="90.36,-1.64 87.67,-5.73 84.22,-10.96 80.78,-16.20 78.10,-20.30"/>
    </edge>
    <edge id=":8_3" function="internal">
        <lane id=":8_3_0" index="0" speed="13.89" length="10.35" shape="90.36,-1.64 86.79,-8.23 86.21,-11.03"/>
    </edge>
    <edge id=":8_4" function="internal">
        <lane id=":8_4_0" index="0" speed="13.89" length="10.72" shape="90.36,-1.64 86.19,-9.09 86.06,-11.26"/>
    </edge>
    <edge id=":8_30" function="internal">
        <lane id=":8_30_0" index="0" speed="13.89" length="11.08" shape="86.21,-11.03 85.71,-13.42 87.11,-17.24 91.00,-19.66"/>
    </edge>
    <edge id=":8_31" function="internal">
        <lane id=":8_31_0" index="0" speed="13.89" length="13.81" shape="86.06,-11.26 85.96,-12.81 89.69,-12.81 97.37,-9.09"/>
    </edge>
    <edge id=":8_5" function="internal">
        <lane id=":8_5_0" index="0" speed="13.89" length="9.12" shape="95.72,-6.23 92.87,-7.62 91.48,-7.62 91.56,-6.23 93.12,-3.46"/>
    </edge>
    <edge id=":8_6" function="internal">
        <lane id=":8_6_0" index="0" speed="13.89" length="17.94" shape="95.72,-6.23 90.20,-8.90 85.61,-9.99 81.97,-9.48 79.27,-7.39"/>
    </edge>
    <edge id=":8_7" function="internal">
        <lane id=":8_7_0" index="0" speed="13.89" length="22.26" shape="95.72,-6.23 91.31,-8.40 85.46,-10.72 79.48,-12.49 74.70,-13.06"/>
    </edge>
    <edge id=":8_8" function="internal">
        <lane id=":8_8_0" index="0" speed="13.89" length="22.65" shape="95.72,-6.23 91.53,-8.90 86.31,-12.63 81.40,-16.69 78.10,-20.30"/>
    </edge>
    <edge id=":8_9" function="internal">
        <lane id=":8_9_0" index="0" speed="13.89" length="20.29" shape="95.72,-6.23 89.28,-10.63 86.34,-14.33 86.91,-17.34 91.00,-19.66"/>
    </edge>
    <edge id=":8_10" function="internal">
        <lane id=":8_10_0" index="0" speed="13.89" length="11.46" shape="92.05,-16.54 90.60,-15.47 91.00,-13.87 93.26,-11.74 97.37,-9.09"/>
    </edge>
    <edge id=":8_11" function="internal">
        <lane id=":8_11_0" index="0" speed="13.89" length="15.19" shape="92.05,-16.54 89.80,-14.93 89.22,-12.22 90.33,-8.40 93.12,-3.46"/>
    </edge>
    <edge id=":8_12" function="internal">
        <lane id=":8_12_0" index="0" speed="13.89" length="15.91" shape="92.05,-16.54 88.49,-14.99 85.03,-12.85 81.89,-10.26 79.27,-7.39"/>
    </edge>
    <edge id=":8_13" function="internal">
        <lane id=":8_13_0" index="0" speed="13.89" length="17.73" shape="92.05,-16.54 88.04,-15.37 83.47,-14.33 78.85,-13.52 74.70,-13.06"/>
    </edge>
    <edge id=":8_14" function="internal">
        <lane id=":8_14_0" index="0" speed="13.89" length="15.70" shape="92.05,-16.54 87.64,-15.57 83.85,-15.88 80.67,-17.46 78.10,-20.30"/>
    </edge>
    <edge id=":8_15" function="internal">
        <lane id=":8_15_0" index="0" speed="13.89" length="11.30" shape="80.87,-22.10 82.67,-20.14 84.96,-19.09 87.73,-18.93 91.00,-19.66"/>
    </edge>
    <edge id=":8_16" function="internal">
        <lane id=":8_16_0" index="0" speed="13.89" length="21.12" shape="80.87,-22.10 83.99,-18.65 88.52,-14.96 93.35,-11.59 97.37,-9.09"/>
    </edge>
    <edge id=":8_17" function="internal">
        <lane id=":8_17_0" index="0" speed="13.89" length="22.30" shape="80.87,-22.10 83.55,-18.00 86.98,-12.77 90.42,-7.54 93.12,-3.46"/>
    </edge>
    <edge id=":8_18" function="internal">
        <lane id=":8_18_0" index="0" speed="13.89" length="6.09" shape="80.87,-22.10 82.44,-18.61 82.60,-16.34"/>
    </edge>
    <edge id=":8_19" function="internal">
        <lane id=":8_19_0" index="0" speed="13.89" length="5.53" shape="80.87,-22.10 82.49,-18.45 82.21,-16.93"/>
    </edge>
    <edge id=":8_32" function="internal">
        <lane id=":8_32_0" index="0" speed="13.89" length="9.77" shape="82.60,-16.34 82.70,-14.99 81.64,-11.25 79.27,-7.39"/>
    </edge>
    <edge id=":8_33" function="internal">
        <lane id=":8_33_0" index="0" speed="13.89" length="9.17" shape="82.21,-16.93 82.00,-15.72 79.40,-13.93 74.70,-13.06"/>
    </edge>
    <edge id=":8_20" function="internal">
        <lane id=":8_20_0" index="0" speed="13.89" length="7.06" shape="74.46,-16.35 76.92,-16.75 78.34,-17.55 78.74,-18.73 78.10,-20.30"/>
    </edge>
    <edge id=":8_21" function="internal">
        <lane id=":8_21_0" index="0" speed="13.89" length="16.89" shape="74.46,-16.35 78.49,-16.79 82.82,-17.54 87.12,-18.52 91.00,-19.66"/>
    </edge>
    <edge id=":8_22" function="internal">
        <lane id=":8_22_0" index="0" speed="13.89" length="24.18" shape="74.46,-16.35 79.54,-15.72 86.17,-13.79 92.67,-11.33 97.37,-9.09"/>
    </edge>
    <edge id=":8_23" function="internal">
        <lane id=":8_23_0" index="0" speed="13.89" length="23.70" shape="74.46,-16.35 79.26,-15.80 83.97,-13.47 88.59,-9.36 93.12,-3.46"/>
    </edge>
    <edge id=":8_24" function="internal">
        <lane id=":8_24_0" index="0" speed="13.89" length="15.72" shape="74.46,-16.35 79.41,-16.12 81.86,-14.55 81.81,-11.64 79.27,-7.39"/>
    </edge>
    <edge id=":8_25" function="internal">
        <lane id=":8_25_0" index="0" speed="13.89" length="6.41" shape="76.66,-9.40 77.70,-11.14 77.71,-12.32 76.71,-12.96 74.70,-13.06"/>
    </edge>
    <edge id=":8_26" function="internal">