<?xml version="1.0" encoding="UTF-8"?>

<!-- generated on Sat Jan 26 00:42:49 2019 by SUMO netconvert Version 0.32.0
<?xml version="1.0" encoding="UTF-8"?>

<configuration xmlns:xsi="http://www.w3.org/2001/XMLSchema-instance" xsi:noNamespaceSchemaLocation="http://sumo.dlr.de/xsd/netconvertConfiguration.xsd">

    <input>
        <node-files value="hello.nod.xml"/>
        <edge-files value="mst.edg.xml"/>
    </input>

</configuration>
-->

<net version="0.27" xmlns:xsi="http://www.w3.org/2001/XMLSchema-instance" xsi:noNamespaceSchemaLocation="http://sumo.dlr.de/xsd/net_file.xsd">

    <location netOffset="0.00,0.00" convBoundary="0.00,0.00,400.00,400.00" origBoundary="0.00,0.00,400.00,400.00" projParameter="!"/>

    <edge id=":0_0" function="internal">
        <lane id=":0_0_0" index="0" speed="13.90" length="4.82" shape="0.00,1.65 -1.24,0.83 -1.65,0.00 -1.24,-0.83 0.00,-1.65"/>
    </edge>
    <edge id=":1_0" function="internal">
        <lane id=":1_0_0" index="0" speed="13.90" length="0.10" shape="100.00,1.65 100.00,1.65"/>
    </edge>
    <edge id=":1_1" function="internal">
        <lane id=":1_1_0" index="0" speed="13.90" length="2.41" shape="100.00,1.65 98.76,0.83 98.35,0.00"/>
    </edge>
    <edge id=":1_4" function="internal">
        <lane id=":1_4_0" index="0" speed="13.90" length="2.41" shape="98.35,0.00 98.76,-0.83 100.00,-1.65"/>
    </edge>
    <edge id=":1_2" function="internal">
        <lane id=":1_2_0" index="0" speed="13.90" length="0.10" shape="100.00,-1.65 100.00,-1.65"/>
    </edge>
    <edge id=":1_3" function="internal">
        <lane id=":1_3_0" index="0" speed="13.90" length="2.41" shape="100.00,-1.65 101.24,-0.83 101.65,0.00"/>
    </edge>
    <edge id=":1_5" function="internal">
        <lane id=":1_5_0" index="0" speed="13.90" length="2.41" shape="101.65,0.00 101.24,0.83 100.00,1.65"/>
    </edge>
    <edge id=":10_0" function="internal">
        <lane id=":10_0_0" index="0" speed="13.90" length="0.10" shape="-1.65,200.00 -1.65,200.00"/>
    </edge>
    <edge id=":10_1" function="internal">
        <lane id=":10_1_0" index="0" speed="13.90" length="2.41" shape="-1.65,200.00 -0.83,198.76 0.00,198.35"/>
    </edge>
    <edge id=":10_4" function="internal">
        <lane id=":10_4_0" index="0" speed="13.90" length="2.41" shape="0.00,198.35 0.83,198.76 1.65,200.00"/>
    </edge>
    <edge id=":10_2" function="internal">
        <lane id=":10_2_0" index="0" speed="13.90" length="0.10" shape="1.65,200.00 1.65,200.00"/>
    </edge>
    <edge id=":10_3" function="internal">
        <lane id=":10_3_0" index="0" speed="13.90" length="2.41" shape="1.65,200.00 0.83,201.24 0.00,201.65"/>
    </edge>
    <edge id=":10_5" function="internal">
        <lane id=":10_5_0" index="0" speed="13.90" length="2.41" shape="0.00,201.65 -0.83,201.24 -1.65,200.00"/>
    </edge>
    <edge id=":11_0" function="internal">
        <lane id=":11_0_0" index="0" speed="13.90" length="7.90" shape="98.35,203.25 98.66,201.11 99.57,199.58 101.11,198.66 103.25,198.35"/>
    </edge>
    <edge id=":11_1" function="internal">
        <lane id=":11_1_0" index="0" speed="13.90" length="2.80" shape="98.35,203.25 99.18,202.01 100.00,201.60 100.35,201.77"/>
    </edge>
    <edge id=":11_4" function="internal">
        <lane id=":11_4_0" index="0" speed="13.90" length="2.02" shape="100.35,201.77 100.83,202.01 101.65,203.25"/>
    </edge>
    <edge id=":11_2" function="internal">
        <lane id=":11_2_0" index="0" speed="13.90" length="2.58" shape="103.25,201.65 102.55,201.75 102.05,202.05 101.75,202.55 101.65,203.25"/>
    </edge>
    <edge id=":11_3" function="internal">
        <lane id=":11_3_0" index="0" speed="13.90" length="2.20" shape="103.25,201.65 102.01,200.83 101.69,200.19"/>
    </edge>
    <edge id=":11_5" function="internal">
        <lane id=":11_5_0" index="0" speed="13.90" length="2.62" shape="101.69,200.19 101.60,200.00 102.01,199.18 103.25,198.35"/>
    </edge>
    <edge id=":12_0" function="internal">
        <lane id=":12_0_0" index="0" speed="13.90" length="4.82" shape="200.00,198.35 201.24,199.17 201.65,200.00 201.24,200.82 200.00,201.65"/>
    </edge>
    <edge id=":13_0" function="internal">
        <lane id=":13_0_0" index="0" speed="13.90" length="0.10" shape="298.35,200.00 298.35,200.00"/>
    </edge>
    <edge id=":13_1" function="internal">
        <lane id=":13_1_0" index="0" speed="13.90" length="2.41" shape="298.35,200.00 299.17,198.76 300.00,198.35"/>
    </edge>
    <edge id=":13_4" function="internal">
        <lane id=":13_4_0" index="0" speed="13.90" length="2.41" shape="300.00,198.35 300.82,198.76 301.65,200.00"/>
    </edge>
    <edge id=":13_2" function="internal">
        <lane id=":13_2_0" index="0" speed="13.90" length="0.10" shape="301.65,200.00 301.65,200.00"/>
    </edge>
    <edge id=":13_3" function="internal">
        <lane id=":13_3_0" index="0" speed="13.90" length="2.41" shape="301.65,200.00 300.83,201.24 300.00,201.65"/>
    </edge>
    <edge id=":13_5" function="internal">
        <lane id=":13_5_0" index="0" speed="13.90" length="2.41" shape="300.00,201.65 299.18,201.24 298.35,200.00"/>
    </edge>
    <edge id=":14_0" function="internal">
        <lane id=":14_0_0" index="0" speed="13.90" length="0.10" shape="398.35,200.00 398.35,200.00"/>
    </edge>
    <edge id=":14_1" function="internal">
        <lane id=":14_1_0" index="0" speed="13.90" length="2.41" shape="398.35,200.00 399.17,198.76 400.00,198.35"/>
    </edge>
    <edge id=":14_4" function="internal">
        <lane id=":14_4_0" index="0" speed="13.90" length="2.41" shape="400.00,198.35 400.82,198.76 401.65,200.00"/>
    </edge>
    <edge id=":14_2" function="internal">
        <lane id=":14_2_0" index="0" speed="13.90" length="0.10" shape="401.65,200.00 401.65,200.00"/>
    </edge>
    <edge id=":14_3" function="internal">
        <lane id=":14_3_0" index="0" speed="13.90" length="2.41" shape="401.65,200.00 400.83,201.24 400.00,201.65"/>
    </edge>
    <edge id=":14_5" function="internal">
        <lane id=":14_5_0" index="0" speed="13.90" length="2.41" shape="400.00,201.65 399.18,201.24 398.35,200.00"/>
    </edge>
    <edge id=":15_0" function="internal">
        <lane id=":15_0_0" index="0" speed="13.90" length="0.10" shape="-1.65,300.00 -1.65,300.00"/>
    </edge>
    <edge id=":15_1" function="internal">
        <lane id=":15_1_0" index="0" speed="13.90" length="2.41" shape="-1.65,300.00 -0.83,298.76 0.00,298.35"/>
    </edge>
    <edge id=":15_4" function="internal">
        <lane id=":15_4_0" index="0" speed="13.90" length="2.41" shape="0.00,298.35 0.83,298.76 1.65,300.00"/>
    </edge>
    <edge id=":15_2" function="internal">
        <lane id=":15_2_0" index="0" speed="13.90" length="0.10" shape="1.65,300.00 1.65,300.00"/>
    </edge>
    <edge id=":15_3" function="internal">
        <lane id=":15_3_0" index="0" speed="13.90" length="2.41" shape="1.65,300.00 0.83,301.24 0.00,301.65"/>
    </edge>
    <edge id=":15_5" function="internal">
        <lane id=":15_5_0" index="0" speed="13.90" length="2.41" shape="0.00,301.65 -0.83,301.24 -1.65,300.00"/>
    </edge>
    <edge id=":16_0" function="internal">
        <lane id=":16_0_0" index="0" speed="13.90" length="7.90" shape="103.25,301.65 101.11,301.34 99.57,300.42 98.66,298.89 98.35,296.75"/>
    </edge>
    <edge id=":16_1" function="internal">
        <lane id=":16_1_0" index="0" speed="13.90" length="2.80" shape="103.25,301.65 102.01,300.83 101.60,300.00 101.77,299.65"/>
    </edge>
    <edge id=":16_4" function="internal">
        <lane id=":16_4_0" index="0" speed="13.90" length="2.02" shape="101.77,299.65 102.01,299.18 103.25,298.35"/>
    </edge>
    <edge id=":16_2" function="internal">
        <lane id=":16_2_0" index="0" speed="13.90" length="2.58" shape="101.65,296.75 101.75,297.45 102.05,297.95 102.55,298.25 103.25,298.35"/>
    </edge>
    <edge id=":16_3" function="internal">
        <lane id=":16_3_0" index="0" speed="13.90" length="2.20" shape="101.65,296.75 100.82,297.99 100.19,298.31"/>
    </edge>
    <edge id=":16_5" function="internal">
        <lane id=":16_5_0" index="0" speed="13.90" length="2.62" shape="100.19,298.31 100.00,298.40 99.17,297.99 98.35,296.75"/>
    </edge>
    <edge id=":17_0" function="internal">
        <lane id=":17_0_0" index="0" speed="13.90" length="0.10" shape="200.00,301.65 200.00,301.65"/>
    </edge>
    <edge id=":17_1" function="internal">
        <lane id=":17_1_0" index="0" speed="13.90" length="2.41" shape="200.00,301.65 198.76,300.83 198.35,300.00"/>
    </edge>
    <edge id=":17_4" function="internal">
        <lane id=":17_4_0" index="0" speed="13.90" length="2.41" shape="198.35,300.00 198.76,299.18 200.00,298.35"/>
    </edge>
    <edge id=":17_2" function="internal">
        <lane id=":17_2_0" index="0" speed="13.90" length="0.10" shape="200.00,298.35 200.00,298.35"/>
    </edge>
    <edge id=":17_3" function="internal">
        <lane id=":17_3_0" index="0" speed="13.90" length="2.41" shape="200.00,298.35 201.24,299.17 201.65,300.00"/>
    </edge>
    <edge id=":17_5" function="internal">
        <lane id=":17_5_0" index="0" speed="13.90" length="2.41" shape="201.65,300.00 201.24,300.82 200.00,301.65"/>
    </edge>
    <edge id=":18_0" function="internal">
        <lane id=":18_0_0" index="0" speed="13.90" length="7.90" shape="301.65,296.75 301.34,298.89 300.42,300.42 298.89,301.34 296.75,301.65"/>
    </edge>
    <edge id=":18_1" function="internal">
        <lane id=":18_1_0" index="0" speed="13.90" length="2.80" shape="301.65,296.75 300.83,297.99 300.00,298.40 299.65,298.23"/>
    </edge>
    <edge id=":18_4" function="internal">
        <lane id=":18_4_0" index="0" speed="13.90" length="2.02" shape="299.65,298.23 299.18,297.99 298.35,296.75"/>
    </edge>
    <edge id=":18_2" function="internal">
        <lane id=":18_2_0" index="0" speed="13.90" length="2.58" shape="296.75,298.35 297.45,298.25 297.95,297.95 298.25,297.45 298.35,296.75"/>
    </edge>
    <edge id=":18_3" function="internal">
        <lane id=":18_3_0" index="0" speed="13.90" length="2.20" shape="296.75,298.35 297.99,299.17 298.31,299.81"/>
    </edge>
    <edge id=":18_5" function="internal">
        <lane id=":18_5_0" index="0" speed="13.90" length="2.62" shape="298.31,299.81 298.40,300.00 297.99,300.82 296.75,301.65"/>
    </edge>
    <edge id=":19_0" function="internal">
        <lane id=":19_0_0" index="0" speed="13.90" length="0.10" shape="398.35,300.00 398.35,300.00"/>
    </edge>
    <edge id=":19_1" function="internal">
        <lane id=":19_1_0" index="0" speed="13.90" length="2.41" shape="398.35,300.00 399.17,298.76 400.00,298.35"/>
    </edge>
    <edge id=":19_4" function="internal">
        <lane id=":19_4_0" index="0" speed="13.90" length="2.41" shape="400.00,298.35 400.82,298.76 401.65,300.00"/>
    </edge>
    <edge id=":19_2" function="internal">
        <lane id=":19_2_0" index="0" speed="13.90" length="0.10" shape="401.65,300.00 401.65,300.00"/>
    </edge>
    <edge id=":19_3" function="internal">
        <lane id=":19_3_0" index="0" speed="13.90" length="2.41" shape="401.65,300.00 400.83,301.24 400.00,301.65"/>
    </edge>
    <edge id=":19_5" function="internal">
        <lane id=":19_5_0" index="0" speed="13.90" length="2.41" shape="400.00,301.65 399.18,301.24 398.35,300.00"/>
    </edge>
    <edge id=":2_0" function="internal">
        <lane id=":2_0_0" index="0" speed="13.90" length="0.10" shape="200.00,1.65 200.00,1.65"/>
    </edge>
    <edge id=":2_1" function="internal">
        <lane id=":2_1_0" index="0" speed="13.90" length="2.41" shape="200.00,1.65 198.76,0.83 198.35,0.00"/>
    </edge>
    <edge id=":2_4" function="internal">
        <lane id=":2_4_0" index="0" speed="13.90" length="2.41" shape="198.35,0.00 198.76,-0.83 200.00,-1.65"/>
    </edge>
    <edge id=":2_2" function="internal">
        <lane id=":2_2_0" index="0" speed="13.90" length="0.10" shape="200.00,-1.65 200.00,-1.65"/>
    </edge>
    <edge id=":2_3" function="internal">
        <lane id=":2_3_0" index="0" speed="13.90" length="2.41" shape="200.00,-1.65 201.24,-0.83 201.65,0.00"/>
    </edge>
    <edge id=":2_5" function="internal">
        <lane id=":2_5_0" index="0" speed="13.90" length="2.41" shape="201.65,0.00 201.24,0.83 200.00,1.65"/>
    </edge>
    <edge id=":20_0" function="internal">
        <lane id=":20_0_0" index="0" speed="13.90" length="7.90" shape="3.25,401.65 1.11,401.34 -0.43,400.42 -1.34,398.89 -1.65,396.75"/>
    </edge>
    <edge id=":20_1" function="internal">
        <lane id=":20_1_0" index="0" speed="13.90" length="2.80" shape="3.25,401.65 2.01,400.83 1.60,400.00 1.77,399.65"/>
    </edge>
    <edge id=":20_4" function="internal">
        <lane id=":20_4_0" index="0" speed="13.90" length="2.02" shape="1.77,399.65 2.01,399.18 3.25,398.35"/>
    </edge>
    <edge id=":20_2" function="internal">
        <lane id=":20_2_0" index="0" speed="13.90" length="2.58" shape="1.65,396.75 1.75,397.45 2.05,397.95 2.55,398.25 3.25,398.35"/>
    </edge>
    <edge id=":20_3" function="internal">
        <lane id=":20_3_0" index="0" speed="13.90" length="2.20" shape="1.65,396.75 0.83,397.99 0.19,398.31"/>
    </edge>
    <edge id=":20_5" function="internal">
        <lane id=":20_5_0" index="0" speed="13.90" length="2.62" shape="0.19,398.31 0.00,398.40 -0.83,397.99 -1.65,396.75"/>
    </edge>
    <edge id=":21_0" function="internal">
        <lane id=":21_0_0" index="0" speed="13.90" length="0.10" shape="100.00,401.65 100.00,401.65"/>
    </edge>
    <edge id=":21_1" function="internal">
        <lane id=":21_1_0" index="0" speed="13.90" length="2.41" shape="100.00,401.65 98.76,400.83 98.35,400.00"/>
    </edge>
    <edge id=":21_4" function="internal">
        <lane id=":21_4_0" index="0" speed="13.90" length="2.41" shape="98.35,400.00 98.76,399.18 100.00,398.35"/>
    </edge>
    <edge id=":21_2" function="internal">
        <lane id=":21_2_0" index="0" speed="13.90" length="0.10" shape="100.00,398.35 100.00,398.35"/>
    </edge>
    <edge id=":21_3" function="internal">
        <lane id=":21_3_0" index="0" speed="13.90" length="2.41" shape="100.00,398.35 101.24,399.17 101.65,400.00"/>
    </edge>
    <edge id=":21_5" function="internal">
        <lane id=":21_5_0" index="0" speed="13.90" length="2.41" shape="101.65,400.00 101.24,400.82 100.00,401.65"/>
    </edge>
    <edge id=":22_0" function="internal">
        <lane id=":22_0_0" index="0" speed="13.90" length="0.10" shape="200.00,401.65 200.00,401.65"/>
    </edge>
    <edge id=":22_1" function="internal">
        <lane id=":22_1_0" index="0" speed="13.90" length="2.41" shape="200.00,401.65 198.76,400.83 198.35,400.00"/>
    </edge>
    <edge id=":22_4" function="internal">
        <lane id=":22_4_0" index="0" speed="13.90" length="2.41" shape="198.35,400.00 198.76,399.18 200.00,398.35"/>
    </edge>
    <edge id=":22_2" function="internal">
        <lane id=":22_2_0" index="0" speed="13.90" length="0.10" shape="200.00,398.35 200.00,398.35"/>
    </edge>
    <edge id=":22_3" function="internal">
        <lane id=":22_3_0" index="0" speed="13.90" length="2.41" shape="200.00,398.35 201.24,399.17 201.65,400.00"/>
    </edge>
    <edge id=":22_5" function="internal">
        <lane id=":22_5_0" index="0" speed="13.90" length="2.41" shape="201.65,400.00 201.24,400.82 200.00,401.65"/>
    </edge>
    <edge id=":23_0" function="internal">
        <lane id=":23_0_0" index="0" speed="13.90" length="0.10" shape="300.00,401.65 300.00,401.65"/>
    </edge>
    <edge id=":23_1" function="internal">
        <lane id=":23_1_0" index="0" speed="13.90" length="2.41" shape="300.00,401.65 298.76,400.83 298.35,400.00"/>
    </edge>
    <edge id=":23_4" function="internal">
        <lane id=":23_4_0" index="0" speed="13.90" length="2.41" shape="298.35,400.00 298.76,399.18 300.00,398.35"/>
    </edge>
    <edge id=":23_2" function="internal">
        <lane id=":23_2_0" index="0" speed="13.90" length="0.10" shape="300.00,398.35 300.00,398.35"/>
    </edge>
    <edge id=":23_3" function="internal">
        <lane id=":23_3_0" index="0" speed="13.90" length="2.41" shape="300.00,398.35 301.24,399.17 301.65,400.00"/>
    </edge>
    <edge id=":23_5" function="internal">
        <lane id=":23_5_0" index="0" speed="13.90" length="2.41" shape="301.65,400.00 301.24,400.82 300.00,401.65"/>
    </edge>
    <edge id=":24_0" function="internal">
        <lane id=":24_0_0" index="0" speed="13.90" length="7.90" shape="401.65,396.75 401.34,398.89 400.42,400.42 398.89,401.34 396.75,401.65"/>
    </edge>
    <edge id=":24_1" function="internal">
        <lane id=":24_1_0" index="0" speed="13.90" length="2.80" shape="401.65,396.75 400.83,397.99 400.00,398.40 399.65,398.23"/>
    </edge>
    <edge id=":24_4" function="internal">
        <lane id=":24_4_0" index="0" speed="13.90" length="2.02" shape="399.65,398.23 399.18,397.99 398.35,396.75"/>
    </edge>
    <edge id=":24_2" function="internal">
        <lane id=":24_2_0" index="0" speed="13.90" length="2.58" shape="396.75,398.35 397.45,398.25 397.95,397.95 398.25,397.45 398.35,396.75"/>
    </edge>
    <edge id=":24_3" function="internal">
        <lane id=":24_3_0" index="0" speed="13.90" length="2.20" shape="396.75,398.35 397.99,399.17 398.31,399.81"/>
    </edge>
    <edge id=":24_5" function="internal">
        <lane id=":24_5_0" index="0" speed="13.90" length="2.62" shape="398.31,399.81 398.40,400.00 397.99,400.82 396.75,401.65"/>
    </edge>
    <edge id=":3_0" function="internal">
        <lane id=":3_0_0" index="0" speed="13.90" length="0.10" shape="300.00,1.65 300.00,1.65"/>
    </edge>
    <edge id=":3_1" function="internal">
        <lane id=":3_1_0" index="0" speed="13.90" length="2.41" shape="300.00,1.65 298.76,0.83 298.35,0.00"/>
    </edge>
    <edge id=":3_4" function="internal">
        <lane id=":3_4_0" index="0" speed="13.90" length="2.41" shape="298.35,0.00 298.76,-0.83 300.00,-1.65"/>
    </edge>
    <edge id=":3_2" function="internal">
        <lane id=":3_2_0" index="0" speed="13.90" length="0.10" shape="300.00,-1.65 300.00,-1.65"/>
    </edge>
    <edge id=":3_3" function="internal">
        <lane id=":3_3_0" index="0" speed="13.90" length="2.41" shape="300.00,-1.65 301.24,-0.83 301.65,0.00"/>
    </edge>
    <edge id=":3_5" function="internal">
        <lane id=":3_5_0" index="0" speed="13.90" length="2.41" shape="301.65,0.00 301.24,0.83 300.00,1.65"/>
    </edge>
    <edge id=":4_0" function="internal">
        <lane id=":4_0_0" index="0" speed="13.90" length="2.58" shape="398.35,3.25 398.25,2.55 397.95,2.05 397.45,1.75 396.75,1.65"/>
    </edge>
    <edge id=":4_1" function="internal">
        <lane id=":4_1_0" index="0" speed="13.90" length="2.20" shape="398.35,3.25 399.17,2.01 399.81,1.69"/>
    </edge>
    <edge id=":4_4" function="internal">
        <lane id=":4_4_0" index="0" speed="13.90" length="2.62" shape="399.81,1.69 400.00,1.60 400.82,2.01 401.65,3.25"/>
    </edge>
    <edge id=":4_2" function="internal">
        <lane id=":4_2_0" index="0" speed="13.90" length="7.90" shape="396.75,-1.65 398.89,-1.34 400.42,-0.43 401.34,1.11 401.65,3.25"/>
    </edge>
    <edge id=":4_3" function="internal">
        <lane id=":4_3_0" index="0" speed="13.90" length="2.80" shape="396.75,-1.65 397.99,-0.83 398.40,0.00 398.23,0.35"/>
    </edge>
    <edge id=":4_5" function="internal">
        <lane id=":4_5_0" index="0" speed="13.90" length="2.02" shape="398.23,0.35 397.99,0.83 396.75,1.65"/>
    </edge>
    <edge id=":5_0" function="internal">
        <lane id=":5_0_0" index="0" speed="13.90" length="7.90" shape="-1.65,103.25 -1.34,101.11 -0.43,99.57 1.11,98.66 3.25,98.35"/>
    </edge>
    <edge id=":5_1" function="internal">
        <lane id=":5_1_0" index="0" speed="13.90" length="2.80" shape="-1.65,103.25 -0.83,102.01 0.00,101.60 0.35,101.77"/>
    </edge>
    <edge id=":5_4" function="internal">
        <lane id=":5_4_0" index="0" speed="13.90" length="2.02" shape="0.35,101.77 0.83,102.01 1.65,103.25"/>
    </edge>
    <edge id=":5_2" function="internal">
        <lane id=":5_2_0" index="0" speed="13.90" length="2.58" shape="3.25,101.65 2.55,101.75 2.05,102.05 1.75,102.55 1.65,103.25"/>
    </edge>
    <edge id=":5_3" function="internal">
        <lane id=":5_3_0" index="0" speed="13.90" length="2.20" shape="3.25,101.65 2.01,100.82 1.69,100.19"/>
    </edge>
    <edge id=":5_5" function="internal">
        <lane id=":5_5_0" index="0" speed="13.90" length="2.62" shape="1.69,100.19 1.60,100.00 2.01,99.17 3.25,98.35"/>
    </edge>
    <edge id=":6_0" function="internal">
        <lane id=":6_0_0" index="0" speed="13.90" length="0.10" shape="100.00,101.65 100.00,101.65"/>
    </edge>
    <edge id=":6_1" function="internal">
        <lane id=":6_1_0" index="0" speed="13.90" length="2.41" shape="100.00,101.65 98.76,100.82 98.35,100.00"/>
    </edge>
    <edge id=":6_4" function="internal">
        <lane id=":6_4_0" index="0" speed="13.90" length="2.41" shape="98.35,100.00 98.76,99.17 100.00,98.35"/>
    </edge>
    <edge id=":6_2" function="internal">
        <lane id=":6_2_0" index="0" speed="13.90" length="0.10" shape="100.00,98.35 100.00,98.35"/>
    </edge>
    <edge id=":6_3" function="internal">
        <lane id=":6_3_0" index="0" speed="13.90" length="2.41" shape="100.00,98.35 101.24,99.18 101.65,100.00"/>
    </edge>
    <edge id=":6_5" function="internal">
        <lane id=":6_5_0" index="0" speed="13.90" length="2.41" shape="101.65,100.00 101.24,100.83 100.00,101.65"/>
    </edge>
    <edge id=":7_0" function="internal">
        <lane id=":7_0_0" index="0" speed="13.90" length="0.10" shape="200.00,101.65 200.00,101.65"/>
    </edge>
    <edge id=":7_1" function="internal">
        <lane id=":7_1_0" index="0" speed="13.90" length="2.41" shape="200.00,101.65 198.76,100.82 198.35,100.00"/>
    </edge>
    <edge id=":7_4" function="internal">
        <lane id=":7_4_0" index="0" speed="13.90" length="2.41" shape="198.35,100.00 198.76,99.17 200.00,98.35"/>
    </edge>
    <edge id=":7_2" function="internal">
        <lane id=":7_2_0" index="0" speed="13.90" length="0.10" shape="200.00,98.35 200.00,98.35"/>
    </edge>
    <edge id=":7_3" function="internal">
        <lane id=":7_3_0" index="0" speed="13.90" length="2.41" shape="200.00,98.35 201.24,99.18 201.65,100.00"/>
    </edge>
    <edge id=":7_5" function="internal">
        <lane id=":7_5_0" index="0" speed="13.90" length="2.41" shape="201.65,100.00 201.24,100.83 200.00,101.65"/>
    </edge>
    <edge id=":8_0" function="internal">
        <lane id=":8_0_0" index="0" speed="13.90" length="2.58" shape="298.35,103.25 298.25,102.55 297.95,102.05 297.45,101.75 296.75,101.65"/>
    </edge>
    <edge id=":8_1" function="internal">
        <lane id=":8_1_0" index="0" speed="13.90" length="2.20" shape="298.35,103.25 299.17,102.01 299.81,101.69"/>
    </edge>
    <edge id=":8_4" function="internal">
        <lane id=":8_4_0" index="0" speed="13.90" length="2.62" shape="299.81,101.69 300.00,101.60 300.82,102.01 301.65,103.25"/>
    </edge>
    <edge id=":8_2" function="internal">
        <lane id=":8_2_0" index="0" speed="13.90" length="7.90" shape="296.75,98.35 298.89,98.66 300.42,99.57 301.34,101.11 301.65,103.25"/>
    </edge>
    <edge id=":8_3" function="internal">
        <lane id=":8_3_0" index="0" speed="13.90" length="2.80" shape="296.75,98.35 297.99,99.18 298.40,100.00 298.23,100.35"/>
    </edge>
    <edge id=":8_5" function="internal">
        <lane id=":8_5_0" index="0" speed="13.90" length="2.02" shape="298.23,100.35 297.99,100.83 296.75,101.65"/>
    </edge>
    <edge id=":9_0" function="internal">
        <lane id=":9_0_0" index="0" speed="13.90" length="0.10" shape="398.35,100.00 398.35,100.00"/>
    </edge>
    <edge id=":9_1" function="internal">
        <lane id=":9_1_0" index="0" speed="13.90" length="2.41" shape="398.35,100.00 399.17,98.76 400.00,98.35"/>
    </edge>
    <edge id=":9_4" function="internal">
        <lane id=":9_4_0" index="0" speed="13.90" length="2.41" shape="400.00,98.35 400.82,98.76 401.65,100.00"/>
    </edge>
    <edge id=":9_2" function="internal">
        <lane id=":9_2_0" index="0" speed="13.90" length="0.10" shape="401.65,100.00 401.65,100.00"/>
    </edge>
    <edge id=":9_3" function="internal">
        <lane id=":9_3_0" index="0" speed="13.90" length="2.41" shape="401.65,100.00 400.83,101.24 400.00,101.65"/>
    </edge>
    <edge id=":9_5" function="internal">
        <lane id=":9_5_0" index="0" speed="13.90" length="2.41" shape="400.00,101.65 399.18,101.24 398.35,100.00"/>
    </edge>

    <edge id="0to1" from="0" to="1" priority="-1">
        <lane id="0to1_0" index="0" speed="13.90" length="100.00" shape="0.00,-1.65 100.00,-1.65"/>
    </edge>
    <edge id="10to15" from="10" to="15" priority="-1">
        <lane id="10to15_0" index="0" speed="13.90" length="100.00" shape="1.65,200.00 1.65,300.00"/>
    </edge>
    <edge id="10to5" from="10" to="5" priority="-1">
        <lane id="10to5_0" index="0" speed="13.90" length="96.75" shape="-1.65,200.00 -1.65,103.25"/>
    </edge>
    <edge id="11to12" from="11" to="12" priority="-1">
        <lane id="11to12_0" index="0" speed="13.90" length="96.75" shape="103.25,198.35 200.00,198.35"/>
    </edge>
    <edge id="11to16" from="11" to="16" priority="-1">
        <lane id="11to16_0" index="0" speed="13.90" length="93.50" shape="101.65,203.25 101.65,296.75"/>
    </edge>
    <edge id="12to11" from="12" to="11" priority="-1">
        <lane id="12to11_0" index="0" speed="13.90" length="96.75" shape="200.00,201.65 103.25,201.65"/>
    </edge>
    <edge id="13to18" from="13" to="18" priority="-1">
        <lane id="13to18_0" index="0" speed="13.90" length="96.75" shape="301.65,200.00 301.65,296.75"/>
    </edge>
    <edge id="13to8" from="13" to="8" priority="-1">
        <lane id="13to8_0" index="0" speed="13.90" length="96.75" shape="298.35,200.00 298.35,103.25"/>
    </edge>
    <edge id="14to19" from="14" to="19" priority="-1">
        <lane id="14to19_0" index="0" speed="13.90" length="100.00" shape="401.65,200.00 401.65,300.00"/>
    </edge>
    <edge id="14to9" from="14" to="9" priority="-1">
        <lane id="14to9_0" index="0" speed="13.90" length="100.00" shape="398.35,200.00 398.35,100.00"/>
    </edge>
    <edge id="15to10" from="15" to="10" priority="-1">
        <lane id="15to10_0" index="0" speed="13.90" length="100.00" shape="-1.65,300.00 -1.65,200.00"/>
    </edge>
    <edge id="15to20" from="15" to="20" priority="-1">
        <lane id="15to20_0" index="0" speed="13.90" length="96.75" shape="1.65,300.00 1.65,396.75"/>
    </edge>
    <edge id="16to11" from="16" to="11" priority="-1">
        <lane id="16to11_0" index="0" speed="13.90" length="93.50" shape="98.35,296.75 98.35,203.25"/>
    </edge>
    <edge id="16to17" from="16" to="17" priority="-1">
        <lane id="16to17_0" index="0" speed="13.90" length="96.75" shape="103.25,298.35 200.00,298.35"/>
    </edge>
    <edge id="17to16" from="17" to="16" priority="-1">
        <lane id="17to16_0" index="0" speed="13.90" length="96.75" shape="200.00,301.65 103.25,301.65"/>
    </edge>
    <edge id="17to18" from="17" to="18" priority="-1">
        <lane id="17to18_0" index="0" speed="13.90" length="96.75" shape="200.00,298.35 296.75,298.35"/>
    </edge>
    <edge id="18to13" from="18" to="13" priority="-1">
        <lane id="18to13_0" index="0" speed="13.90" length="96.75" shape="298.35,296.75 298.35,200.00"/>
    </edge>
    <edge id="18to17" from="18" to="17" priority="-1">
        <lane id="18to17_0" index="0" speed="13.90" length="96.75" shape="296.75,301.65 200.00,301.65"/>
    </edge>
    <edge id="19to14" from="19" to="14" priority="-1">
        <lane id="19to14_0" index="0" speed="13.90" length="100.00" shape="398.35,300.00 398.35,200.00"/>
    </edge>
    <edge id="19to24" from="19" to="24" priority="-1">
        <lane id="19to24_0" index="0" speed="13.90" length="96.75" shape="401.65,300.00 401.65,396.75"/>
    </edge>
    <edge id="1to0" from="1" to="0" priority="-1">
        <lane id="1to0_0" index="0" speed="13.90" length="100.00" shape="100.00,1.65 0.00,1.65"/>
    </edge>
    <edge id="1to2" from="1" to="2" priority="-1">
        <lane id="1to2_0" index="0" speed="13.90" length="100.00" shape="100.00,-1.65 200.00,-1.65"/>
    </edge>
    <edge id="20to15" from="20" to="15" priority="-1">
        <lane id="20to15_0" index="0" speed="13.90" length="96.75" shape="-1.65,396.75 -1.65,300.00"/>
    </edge>
    <edge id="20to21" from="20" to="21" priority="-1">
        <lane id="20to21_0" index="0" speed="13.90" length="96.75" shape="3.25,398.35 100.00,398.35"/>
    </edge>
    <edge id="21to20" from="21" to="20" priority="-1">
        <lane id="21to20_0" index="0" speed="13.90" length="96.75" shape="100.00,401.65 3.25,401.65"/>
    </edge>
    <edge id="21to22" from="21" to="22" priority="-1">
        <lane id="21to22_0" index="0" speed="13.90" length="100.00" shape="100.00,398.35 200.00,398.35"/>
    </edge>
    <edge id="22to21" from="22" to="21" priority="-1">
        <lane id="22to21_0" index="0" speed="13.90" length="100.00" shape="200.00,401.65 100.00,401.65"/>
    </edge>
    <edge id="22to23" from="22" to="23" priority="-1">
        <lane id="22to23_0" index="0" speed="13.90" length="100.00" shape="200.00,398.35 300.00,398.35"/>
    </edge>
    <edge id="23to22" from="23" to="22" priority="-1">
        <lane id="23to22_0" index="0" speed="13.90" length="100.00" shape="300.00,401.65 200.00,401.65"/>
    </edge>
    <edge id="23to24" from="23" to="24" priority="-1">
        <lane id="23to24_0" index="0" speed="13.90" length="96.75" shape="300.00,398.35 396.75,398.35"/>
    </edge>
    <edge id="24to19" from="24" to="19" priority="-1">
        <lane id="24to19_0" index="0" speed="13.90" length="96.75" shape="398.35,396.75 398.35,300.00"/>
    </edge>
    <edge id="24to23" from="24" to="23" priority="-1">
        <lane id="24to23_0" index="0" speed="13.90" length="96.75" shape="396.75,401.65 300.00,401.65"/>
    </edge>