<?xml version="1.0" encoding="UTF-8"?>

<!-- generated on Sat Jan 26 16:27:14 2019 by SUMO netconvert Version 0.32.0
<?xml version="1.0" encoding="UTF-8"?>

<configuration xmlns:xsi="http://www.w3.org/2001/XMLSchema-instance" xsi:noNamespaceSchemaLocation="http://sumo.dlr.de/xsd/netconvertConfiguration.xsd">

    <input>
        <node-files value="random.nod.xml"/>
        <edge-files value="cpr.edg.xml"/>
    </input>

    <output>
        <output-file value="cpr.net.xml"/>
    </output>

</configuration>
-->

<net version="0.27" xmlns:xsi="http://www.w3.org/2001/XMLSchema-instance" xsi:noNamespaceSchemaLocation="http://sumo.dlr.de/xsd/net_file.xsd">

    <location netOffset="0.00,0.00" convBoundary="0.00,0.00,400.00,400.00" origBoundary="0.00,0.00,400.00,400.00" projParameter="!"/>

    <edge id=":0_0" function="internal">
        <lane id=":0_0_0" index="0" speed="13.90" length="4.82" shape="-1.65,0.00 -0.83,-1.24 0.00,-1.65 0.83,-1.24 1.65,0.00"/>
    </edge>
    <edge id=":1_0" function="internal">
        <lane id=":1_0_0" index="0" speed="13.90" length="4.82" shape="398.35,0.00 399.17,-1.24 400.00,-1.65 400.82,-1.24 401.65,0.00"/>
    </edge>
    <edge id=":2_0" function="internal">
        <lane id=":2_0_0" index="0" speed="13.90" length="0.10" shape="-1.65,200.00 -1.65,200.00"/>
    </edge>
    <edge id=":2_1" function="internal">
        <lane id=":2_1_0" index="0" speed="13.90" length="2.41" shape="-1.65,200.00 -0.83,198.76 0.00,198.35"/>
    </edge>
    <edge id=":2_4" function="internal">
        <lane id=":2_4_0" index="0" speed="13.90" length="2.41" shape="0.00,198.35 0.83,198.76 1.65,200.00"/>
    </edge>
    <edge id=":2_2" function="internal">
        <lane id=":2_2_0" index="0" speed="13.90" length="0.10" shape="1.65,200.00 1.65,200.00"/>
    </edge>
    <edge id=":2_3" function="internal">
        <lane id=":2_3_0" index="0" speed="13.90" length="2.41" shape="1.65,200.00 0.83,201.24 0.00,201.65"/>
    </edge>
    <edge id=":2_5" function="internal">
        <lane id=":2_5_0" index="0" speed="13.90" length="2.41" shape="0.00,201.65 -0.83,201.24 -1.65,200.00"/>
    </edge>
    <edge id=":3_0" function="internal">
        <lane id=":3_0_0" index="0" speed="13.90" length="4.82" shape="300.00,101.65 298.76,100.82 298.35,100.00 298.76,99.17 300.00,98.35"/>
    </edge>
    <edge id=":4_0" function="internal">
        <lane id=":4_0_0" index="0" speed="13.90" length="5.00" shape="398.35,104.75 398.16,103.39 397.58,102.43 396.61,101.84 395.25,101.65"/>
    </edge>
    <edge id=":4_1" function="internal">
        <lane id=":4_1_0" index="0" speed="13.90" length="9.50" shape="398.35,104.75 398.35,95.25"/>
    </edge>
    <edge id=":4_2" function="internal">
        <lane id=":4_2_0" index="0" speed="13.90" length="2.41" shape="398.35,104.75 399.17,103.51 400.00,103.10"/>
    </edge>
    <edge id=":4_9" function="internal">
        <lane id=":4_9_0" index="0" speed="13.90" length="2.41" shape="400.00,103.10 400.82,103.51 401.65,104.75"/>
    </edge>
    <edge id=":4_3" function="internal">
        <lane id=":4_3_0" index="0" speed="13.90" length="9.50" shape="401.65,95.25 401.65,104.75"/>
    </edge>
    <edge id=":4_4" function="internal">
        <lane id=":4_4_0" index="0" speed="13.90" length="5.28" shape="401.65,95.25 401.25,98.05 400.05,100.05 399.95,100.11"/>
    </edge>
    <edge id=":4_5" function="internal">
        <lane id=":4_5_0" index="0" speed="13.90" length="2.41" shape="401.65,95.25 400.83,96.49 400.00,96.90"/>
    </edge>
    <edge id=":4_10" function="internal">
        <lane id=":4_10_0" index="0" speed="13.90" length="5.04" shape="399.95,100.11 398.05,101.25 395.25,101.65"/>
    </edge>
    <edge id=":4_11" function="internal">
        <lane id=":4_11_0" index="0" speed="13.90" length="2.41" shape="400.00,96.90 399.18,96.49 398.35,95.25"/>
    </edge>
    <edge id=":4_6" function="internal">
        <lane id=":4_6_0" index="0" speed="13.90" length="5.00" shape="395.25,98.35 396.61,98.16 397.58,97.57 398.16,96.61 398.35,95.25"/>
    </edge>
    <edge id=":4_7" function="internal">
        <lane id=":4_7_0" index="0" speed="13.90" length="10.32" shape="395.25,98.35 398.05,98.75 400.05,99.95 401.25,101.95 401.65,104.75"/>
    </edge>
    <edge id=":4_8" function="internal">
        <lane id=":4_8_0" index="0" speed="13.90" length="4.82" shape="395.25,98.35 396.49,99.18 396.90,100.00 396.49,100.83 395.25,101.65"/>
    </edge>
    <edge id=":5_0" function="internal">
        <lane id=":5_0_0" index="0" speed="13.90" length="7.90" shape="298.35,203.25 298.66,201.11 299.58,199.58 301.11,198.66 303.25,198.35"/>
    </edge>
    <edge id=":5_1" function="internal">
        <lane id=":5_1_0" index="0" speed="13.90" length="2.80" shape="298.35,203.25 299.17,202.01 300.00,201.60 300.35,201.77"/>
    </edge>
    <edge id=":5_4" function="internal">
        <lane id=":5_4_0" index="0" speed="13.90" length="2.02" shape="300.35,201.77 300.82,202.01 301.65,203.25"/>
    </edge>
    <edge id=":5_2" function="internal">
        <lane id=":5_2_0" index="0" speed="13.90" length="2.58" shape="303.25,201.65 302.55,201.75 302.05,202.05 301.75,202.55 301.65,203.25"/>
    </edge>
    <edge id=":5_3" function="internal">
        <lane id=":5_3_0" index="0" speed="13.90" length="2.20" shape="303.25,201.65 302.01,200.83 301.69,200.19"/>
    </edge>
    <edge id=":5_5" function="internal">
        <lane id=":5_5_0" index="0" speed="13.90" length="2.62" shape="301.69,200.19 301.60,200.00 302.01,199.18 303.25,198.35"/>
    </edge>
    <edge id=":6_0" function="internal">
        <lane id=":6_0_0" index="0" speed="13.90" length="7.90" shape="401.65,196.75 401.34,198.89 400.42,200.42 398.89,201.34 396.75,201.65"/>
    </edge>
    <edge id=":6_1" function="internal">
        <lane id=":6_1_0" index="0" speed="13.90" length="2.80" shape="401.65,196.75 400.83,197.99 400.00,198.40 399.65,198.23"/>
    </edge>
    <edge id=":6_4" function="internal">
        <lane id=":6_4_0" index="0" speed="13.90" length="2.02" shape="399.65,198.23 399.18,197.99 398.35,196.75"/>
    </edge>
    <edge id=":6_2" function="internal">
        <lane id=":6_2_0" index="0" speed="13.90" length="2.58" shape="396.75,198.35 397.45,198.25 397.95,197.95 398.25,197.45 398.35,196.75"/>
    </edge>
    <edge id=":6_3" function="internal">
        <lane id=":6_3_0" index="0" speed="13.90" length="2.20" shape="396.75,198.35 397.99,199.17 398.31,199.81"/>
    </edge>
    <edge id=":6_5" function="internal">
        <lane id=":6_5_0" index="0" speed="13.90" length="2.62" shape="398.31,199.81 398.40,200.00 397.99,200.82 396.75,201.65"/>
    </edge>
    <edge id=":7_0" function="internal">
        <lane id=":7_0_0" index="0" speed="13.90" length="7.90" shape="3.25,401.65 1.11,401.34 -0.43,400.42 -1.34,398.89 -1.65,396.75"/>
    </edge>
    <edge id=":7_1" function="internal">
        <lane id=":7_1_0" index="0" speed="13.90" length="2.80" shape="3.25,401.65 2.01,400.83 1.60,400.00 1.77,399.65"/>
    </edge>
    <edge id=":7_4" function="internal">
        <lane id=":7_4_0" index="0" speed="13.90" length="2.02" shape="1.77,399.65 2.01,399.18 3.25,398.35"/>
    </edge>
    <edge id=":7_2" function="internal">
        <lane id=":7_2_0" index="0" speed="13.90" length="2.58" shape="1.65,396.75 1.75,397.45 2.05,397.95 2.55,398.25 3.25,398.35"/>
    </edge>
    <edge id=":7_3" function="internal">
        <lane id=":7_3_0" index="0" speed="13.90" length="2.20" shape="1.65,396.75 0.83,397.99 0.19,398.31"/>
    </edge>
    <edge id=":7_5" function="internal">
        <lane id=":7_5_0" index="0" speed="13.90" length="2.62" shape="0.19,398.31 0.00,398.40 -0.83,397.99 -1.65,396.75"/>
    </edge>
    <edge id=":8_0" function="internal">
        <lane id=":8_0_0" index="0" speed="13.90" length="7.90" shape="301.65,396.75 301.34,398.89 300.42,400.42 298.89,401.34 296.75,401.65"/>
    </edge>
    <edge id=":8_1" function="internal">
        <lane id=":8_1_0" index="0" speed="13.90" length="2.80" shape="301.65,396.75 300.83,397.99 300.00,398.40 299.65,398.23"/>
    </edge>
    <edge id=":8_4" function="internal">
        <lane id=":8_4_0" index="0" speed="13.90" length="2.02" shape="299.65,398.23 299.18,397.99 298.35,396.75"/>
    </edge>
    <edge id=":8_2" function="internal">
        <lane id=":8_2_0" index="0" speed="13.90" length="2.58" shape="296.75,398.35 297.45,398.25 297.95,397.95 298.25,397.45 298.35,396.75"/>
    </edge>
    <edge id=":8_3" function="internal">
        <lane id=":8_3_0" index="0" speed="13.90" length="2.20" shape="296.75,398.35 297.99,399.17 298.31,399.81"/>
    </edge>
    <edge id=":8_5" function="internal">
        <lane id=":8_5_0" index="0" speed="13.90" length="2.62" shape="298.31,399.81 298.40,400.00 297.99,400.82 296.75,401.65"/>
    </edge>

    <edge id="0to2" from="0" to="2" priority="-1">
        <lane id="0to2_0" index="0" speed="13.90" length="200.00" shape="1.65,0.00 1.65,200.00"/>
    </edge>
    <edge id="1to4" from="1" to="4" priority="-1">
        <lane id="1to4_0" index="0" speed="13.90" length="95.25" shape="401.65,0.00 401.65,95.25"/>
    </edge>
    <edge id="2to0" from="2" to="0" priority="-1">
        <lane id="2to0_0" index="0" speed="13.90" length="200.00" shape="-1.65,200.00 -1.65,0.00"/>
    </edge>
    <edge id="2to7" from="2" to="7" priority="-1">
        <lane id="2to7_0" index="0" speed="13.90" length="196.75" shape="1.65,200.00 1.65,396.75"/>
    </edge>
    <edge id="3to4" from="3" to="4" priority="-1">
        <lane id="3to4_0" index="0" speed="13.90" length="95.25" shape="300.00,98.35 395.25,98.35"/>
    </edge>
    <edge id="4to1" from="4" to="1" priority="-1">
        <lane id="4to1_0" index="0" speed="13.90" length="95.25" shape="398.35,95.25 398.35,0.00"/>
    </edge>
    <edge id="4to3" from="4" to="3" priority="-1">
        <lane id="4to3_0" index="0" speed="13.90" length="95.25" shape="395.25,101.65 300.00,101.65"/>
    </edge>
    <edge id="4to6" from="4" to="6" priority="-1">
        <lane id="4to6_0" index="0" speed="13.90" length="92.00" shape="401.65,104.75 401.65,196.75"/>
    </edge>
    <edge id="5to6" from="5" to="6" priority="-1">
        <lane id="5to6_0" index="0" speed="13.90" length="93.50" shape="303.25,198.35 396.75,198.35"/>
    </edge>
    <edge id="5to8" from="5" to="8" priority="-1">
        <lane id="5to8_0" index="0" speed="13.90" length="193.50" shape="301.65,203.25 301.65,396.75"/>
    </edge>
    <edge id="6to4" from="6" to="4" priority="-1">
        <lane id="6to4_0" index="0" speed="13.90" length="92.00" shape="398.35,196.75 398.35,104.75"/>
    </edge>
    <edge id="6to5" from="6" to="5" priority="-1">
        <lane id="6to5_0" index="0" speed="13.90" length="93.50" shape="396.75,201.65 303.25,201.65"/>
    </edge>
    <edge id="7to2" from="7" to="2" priority="-1">
        <lane id="7to2_0" index="0" speed="13.90" length="196.75" shape="-1.65,396.75 -1.65,200.00"/>
    </edge>
    <edge id="7to8" from="7" to="8" priority="-1">
        <lane id="7to8_0" index="0" speed="13.90" length="293.50" shape="3.25,398.35 296.75,398.35"/>
    </edge>
    <edge id="8to5" from="8" to="5" priority="-1">
        <lane id="8to5_0" index="0" speed="13.90" length="193.50" shape="298.35,396.75 298.35,203.25"/>
    </edge>
    <edge id="8to7" from="8" to="7" priority="-1">
        <lane id="8to7_0" index="0" speed="13.90" length="293.50" shape="296.75,401.65 3.25,401.65"/>
    </edge>

    <junction id="0" type="priority" x="0.00" y="0.00" incLanes="2to0_0" intLanes=":0_0_0" shape="0.05,0.00 -3.25,0.00 -0.05,0.00">
        <request index="0" response="0" foes="0" cont="0"/>
    </junction>
    <junction id="1" type="priority" x="400.00" y="0.00" incLanes="4to1_0" intLanes=":1_0_0" shape="400.05,0.00 396.75,0.00 399.95,0.00">
        <request index="0" response="0" foes="0" cont="0"/>
    </junction>
    <junction id="2" type="priority" x="0.00" y="200.00" incLanes="7to2_0 0to2_0" intLanes=":2_0_0 :2_4_0 :2_2_0 :2_5_0" shape="-3.25,200.00 3.25,200.00 -3.25,200.00">
        <request index="0" response="0000" foes="1000" cont="0"/>
        <request index="1" response="0100" foes="0100" cont="1"/>
        <request index="2" response="0000" foes="0010" cont="0"/>
        <request index="3" response="0001" foes="0001" cont="1"/>
    </junction>
    <junction id="3" type="priority" x="300.00" y="100.00" incLanes="4to3_0" intLanes=":3_0_0" shape="300.00,99.95 300.00,103.25 300.00,100.05">
        <request index="0" response="0" foes="0" cont="0"/>
    </junction>
    <junction id="4" type="priority" x="400.00" y="100.00" incLanes="6to4_0 1to4_0 3to4_0" intLanes=":4_0_0 :4_1_0 :4_9_0 :4_3_0 :4_10_0 :4_11_0 :4_6_0 :4_7_0 :4_8_0" shape="396.75,104.75 403.25,104.75 403.25,95.25 396.75,95.25 395.25,96.75 395.25,103.25">
        <request index="0" response="000000000" foes="100010000" cont="0"/>
        <request index="1" response="000000000" foes="011110000" cont="0"/>
        <request index="2" response="010001000" foes="010001000" cont="1"/>
        <request index="3" response="000000000" foes="010000100" cont="0"/>
        <request index="4" response="000000011" foes="110000011" cont="1"/>
        <request index="5" response="001000010" foes="001000010" cont="1"/>
        <request index="6" response="000000010" foes="000100010" cont="0"/>
        <request index="7" response="000011010" foes="000011110" cont="0"/>
        <request index="8" response="000010001" foes="000010001" cont="0"/>
    </junction>
    <junction id="5" type="priority" x="300.00" y="200.00" incLanes="8to5_0 6to5_0" intLanes=":5_0_0 :5_4_0 :5_2_0 :5_5_0" shape="296.75,203.25 303.25,203.25 303.25,196.75">
        <request index="0" response="0000" foes="1000" cont="0"/>
        <request index="1" response="0100" foes="0100" cont="1"/>
        <request index="2" response="0000" foes="0010" cont="0"/>
        <request index="3" response="0001" foes="0001" cont="1"/>
    </junction>
    <junction id="6" type="priority" x="400.00" y="200.00" incLanes="4to6_0 5to6_0" intLanes=":6_0_0 :6_4_0 :6_2_0 :6_5_0" shape="403.25,196.75 396.75,196.75 396.75,203.25">
        <request index="0" response="0000" foes="1000" cont="0"/>
        <request index="1" response="0100" foes="0100" cont="1"/>
        <request index="2" response="0000" foes="0010" cont="0"/>
        <request index="3" response="0001" foes="0001" cont="1"/>
    </junction>
    <junction id="7" type="priority" x="0.00" y="400.00" incLanes="8to7_0 2to7_0" intLanes=":7_0_0 :7_4_0 :7_2_0 :7_5_0" shape="3.25,403.25 3.25,396.75 -3.25,396.75">
        <request index="0" response="0000" foes="1000" cont="0"/>
        <request index="1" response="0100" foes="0100" cont="1"/>
        <request index="2" response="0000" foes="0010" cont="0"/>
        <request index="3" response="0001" foes="0001" cont="1"/>
    </junction>
    <junction id="8" type="priority" x="300.00" y="400.00" incLanes="5to8_0 7to8_0" intLanes=":8_0_0 :8_4_0 :8_2_0 :8_5_0" shape="303.25,396.75 296.75,396.75 296.75,403.25">
        <request index="0" response="0000" foes="1000" cont="0"/>
        <request index="1" response="0100" foes="0100" cont="1"/>
        <request index="2" response="0000" foes="0010" cont="0"/>
        <request index="3" response="0001" foes="0001" cont="1"/>
    </junction>

    <junction id=":2_4_0" type="internal" x="0.00" y="198.35" incLanes=":2_1_0 0to2_0" intLanes=":2_2_0"/>
    <junction id=":2_5_0" type="internal" x="0.00" y="201.65" incLanes=":2_3_0 7to2_0" intLanes=":2_0_0"/>
    <junction id=":4_9_0" type="internal" x="400.00" y="103.10" incLanes=":4_2_0 1to4_0 3to4_0" intLanes=":4_3_0 :4_7_0"/>
    <junction id=":4_10_0" type="internal" x="399.95" y="100.11" incLanes=":4_4_0 6to4_0" intLanes=":4_0_0 :4_1_0 :4_7_0 :4_8_0"/>
    <junction id=":4_11_0" type="internal" x="400.00" y="96.90" incLanes=":4_5_0 3to4_0 6to4_0" intLanes=":4_1_0 :4_6_0"/>
    <junction id=":5_4_0" type="internal" x="300.35" y="201.77" incLanes=":5_1_0 6to5_0" intLanes=":5_2_0"/>
    <junction id=":5_5_0" type="internal" x="301.69" y="200.19" incLanes=":5_3_0 8to5_0" intLanes=":5_0_0"/>
    <junction id=":6_4_0" type="internal" x="399.65" y="198.23" incLanes=":6_1_0 5to6_0" intLanes=":6_2_0"/>
    <junction id=":6_5_0" type="internal" x="398.31" y="199.81" incLanes=":6_3_0 4to6_0" intLanes=":6_0_0"/>
    <junction id=":7_4_0" type="internal" x="1.77" y="399.65" incLanes=":7_1_0 2to7_0" intLanes=":7_2_0"/>
    <junction id=":7_5_0" type="internal" x="0.19" y="398.31" incLanes=":7_3_0 8to7_0" intLanes=":7_0_0"/>
    <junction id=":8_4_0" type="internal" x="299.65" y="398.23" incLanes=":8_1_0 7to8_0" intLanes=":8_2_0"/>
    <junction id=":8_5_0" type="internal" x="298.31" y="399.81" incLanes=":8_3_0 5to8_0" intLanes=":8_0_0"/>

    <connection from="0to2" to="2to7" fromLane="0" toLane="0" via=":2_2_0" dir="s" state="M"/>
    <connection from="0to2" to="2to0" fromLane="0" toLane="0" via=":2_3_0" dir="t" state="m"/>
    <connection from="1to4" to="4to6" fromLane="0" toLane="0" via=":4_3_0" dir="s" state="M"/>
    <connection from="1to4" to="4to3" fromLane="0" toLane="0" via=":4_4_0" dir="l" state="m"/>
    <connection from="1to4" to="4to1" fromLane="0" toLane="0" via=":4_5_0" dir="t" state="m"/>
    <connection from="2to0" to="0to2" fromLane="0" toLane="0" via=":0_0_0" dir="t" state="M"/>
    <connection from="2to7" to="7to8" fromLane="0" toLane="0" via=":7_2_0" dir="r" state="M"/>
    <connection from="2to7" to="7to2" fromLane="0" toLane="0" via=":7_3_0" dir="t" state="m"/>
    <connection from="3to4" to="4to1" fromLane="0" toLane="0" via=":4_6_0" dir="r" state="m"/>
    <connection from="3to4" to="4to6" fromLane="0" toLane="0" via=":4_7_0" dir="l" state="m"/>
    <connection from="3to4" to="4to3" fromLane="0" toLane="0" via=":4_8_0" dir="t" state="m"/>
    <connection from="4to1" to="1to4" fromLane="0" toLane="0" via=":1_0_0" dir="t" state="M"/>
    <connection from="4to3" to="3to4" fromLane="0" toLane="0" via=":3_0_0" dir="t" state="M"/>
    <connection from="4to6" to="6to5" fromLane="0" toLane="0" via=":6_0_0" dir="l" state="M"/>
    <connection from="4to6" to="6to4" fromLane="0" toLane="0" via=":6_1_0" dir="t" state="m"/>
    <connection from="5to6" to="6to4" fromLane="0" toLane="0" via=":6_2_0" dir="r" state="M"/>
    <connection from="5to6" to="6to5" fromLane="0" toLane="0" via=":6_3_0" dir="t" state="m"/>
    <connection from="5to8" to="8to7" fromLane="0" toLane="0" via=":8_0_0" dir="l" state="M"/>
    <connection from="5to8" to="8to5" fromLane="0" toLane="0" via=":8_1_0" dir="t" state="m"/>
    <connection from="6to4" to="4to3" fromLane="0" toLane="0" via=":4_0_0" dir="r" state="M"/>
    <connection from="6to4" to="4to1" fromLane="0" toLane="0" via=":4_1_0" dir="s" state="M"/>
    <connection from="6to4" to="4to6" fromLane="0" toLane="0" via=":4_2_0" dir="t" state="m"/>
    <connection from="6to5" to="5to8" fromLane="0" toLane="0" via=":5_2_0" dir="r" state="M"/>
    <connection from="6to5" to="5to6" fromLane="0" toLane="0" via=":5_3_0" dir="t" state="m"/>
    <connection from="7to2" to="2to0" fromLane="0" toLane="0" via=":2_0_0" dir="s" state="M"/>
    <connection from="7to2" to="2to7" fromLane="0" toLane="0" via=":2_1_0" dir="t" state="m"/>
    <connection from="7to8" to="8to5" fromLane="0" toLane="0" via=":8_2_0" dir="r" state="M"/>
    <connection from="7to8" to="8to7" fromLane="0" toLane="0" via=":8_3_0" dir="t" state="m"/>
    <connection from="8to5" to="5to6" fromLane="0" toLane="0" via=":5_0_0" dir="l" state="M"/>
    <connection from="8to5" to="5to8" fromLane="0" toLane="0" via=":5_1_0" dir="t" state="m"/>
    <connection from="8to7" to="7to2" fromLane="0" toLane="0" via=":7_0_0" dir="l" state="M"/>
    <connection from="8to7" to="7to8" fromLane="0" toLane="0" via=":7_1_0" dir="t" state="m"/>

    <connection from=":0_0" to="0to2" fromLane="0" toLane="0" dir="t" state="M"/>
    <connection from=":1_0" to="1to4" fromLane="0" toLane="0" dir="t" state="M"/>
    <connection from=":2_0" to="2to0" fromLane="0" toLane="0" dir="s" state="M"/>
    <connection from=":2_1" to="2to7" fromLane="0" toLane="0" via=":2_4_0" dir="t" state="m"/>
    <connection from=":2_4" to="2to7" fromLane="0" toLane="0" dir="t" state="M"/>
    <connection from=":2_2" to="2to7" fromLane="0" toLane="0" dir="s" state="M"/>
    <connection from=":2_3" to="2to0" fromLane="0" toLane="0" via=":2_5_0" dir="t" state="m"/>
    <connection from=":2_5" to="2to0" fromLane="0" toLane="0" dir="t" state="M"/>
    <connection from=":3_0" to="3to4" fromLane="0" toLane="0" dir="t" state="M"/>
    <connection from=":4_0" to="4to3" fromLane="0" toLane="0" dir="r" state="M"/>
    <connection from=":4_1" to="4to1" fromLane="0" toLane="0" dir="s" state="M"/>
    <connection from=":4_2" to="4to6" fromLane="0" toLane="0" via=":4_9_0" dir="t" state="m"/>
    <connection from=":4_9" to="4to6" fromLane="0" toLane="0" dir="t" state="M"/>
    <connection from=":4_3" to="4to6" fromLane="0" toLane="0" dir="s" state="M"/>
    <connection from=":4_4" to="4to3" fromLane="0" toLane="0" via=":4_10_0" dir="l" state="m"/>
    <connection from=":4_10" to="4to3" fromLane="0" toLane="0" dir="l" state="M"/>
    <connection from=":4_5" to="4to1" fromLane="0" toLane="0" via=":4_11_0" dir="t" state="m"/>
    <connection from=":4_11" to="4to1" fromLane="0" toLane="0" dir="t" state="M"/>
    <connection from=":4_6" to="4to1" fromLane="0" toLane="0" dir="r" state="M"/>
    <connection from=":4_7" to="4to6" fromLane="0" toLane="0" dir="l" state="M"/>
    <connection from=":4_8" to="4to3" fromLane="0" toLane="0" dir="t" state="M"/>
    <connection from=":5_0" to="5to6" fromLane="0" toLane="0" dir="l" state="M"/>
    <connection from=":5_1" to="5to8" fromLane="0" toLane="0" via=":5_4_0" dir="t" state="m"/>
    <connection from=":5_4" to="5to8" fromLane="0" toLane="0" dir="t" state="M"/>
    <connection from=":5_2" to="5to8" fromLane="0" toLane="0" dir="r" state="M"/>
    <connection from=":5_3" to="5to6" fromLane="0" toLane="0" via=":5_5_0" dir="t" state="m"/>
    <connection from=":5_5" to="5to6" fromLane="0" toLane="0" dir="t" state="M"/>
    <connection from=":6_0" to="6to5" fromLane="0" toLane="0" dir="l" state="M"/>
    <connection from=":6_1" to="6to4" fromLane="0" toLane="0" via=":6_4_0" dir="t" state="m"/>
    <connection from=":6_4" to="6to4" fromLane="0" toLane="0" dir="t" state="M"/>
    <connection from=":6_2" to="6to4" fromLane="0" toLane="0" dir="r" state="M"/>
    <connection from=":6_3" to="6to5" fromLane="0" toLane="0" via=":6_5_0" dir="t" state="m"/>
    <connection from=":6_5" to="6to5" fromLane="0" toLane="0" dir="t" state="M"/>
    <connection from=":7_0" to="7to2" fromLane="0" toLane="0" dir="l" state="M"/>
    <connection from=":7_1" to="7to8" fromLane="0" toLane="0" via=":7_4_0" dir="t" state="m"/>
    <connection from=":7_4" to="7to8" fromLane="0" toLane="0" dir="t" state="M"/>
    <connection from=":7_2" to="7to8" fromLane="0" toLane="0" dir="r" state="M"/>
    <connection from=":7_3" to="7to2" fromLane="0" toLane="0" via=":7_5_0" dir="t" state="m"/>
    <connection from=":7_5" to="7to2" fromLane="0" toLane="0" dir="t" state="M"/>
    <connection from=":8_0" to="8to7" fromLane="0" toLane="0" dir="l" state="M"/>
    <connection from=":8_1" to="8to5" fromLane="0" toLane="0" via=":8_4_0" dir="t" state="m"/>
    <connection from=":8_4" to="8to5" fromLane="0" toLane="0" dir="t" state="M"/>
    <connection from=":8_2" to="8to5" fromLane="0" toLane="0" dir="r" state="M"/>
    <connection from=":8_3" to="8to7" fromLane="0" toLane="0" via=":8_5_0" dir="t" state="m"/>
    <connection from=":8_5" to="8to7" fromLane="0" toLane="0" dir="t" state="M"/>

</net>
