<?xml version="1.0" encoding="UTF-8"?>

<!-- generated on Wed Jan 30 02:33:53 2019 by SUMO netconvert Version 0.32.0
<?xml version="1.0" encoding="UTF-8"?>

<configuration xmlns:xsi="http://www.w3.org/2001/XMLSchema-instance" xsi:noNamespaceSchemaLocation="http://sumo.dlr.de/xsd/netconvertConfiguration.xsd">

    <input>
        <node-files value="random.nod.xml"/>
        <edge-files value="cpr.edg.xml"/>
    </input>

    <output>
        <output-file value="cpr.net.xml"/>
    </output>

</configuration>
-->

<net version="0.27" xmlns:xsi="http://www.w3.org/2001/XMLSchema-instance" xsi:noNamespaceSchemaLocation="http://sumo.dlr.de/xsd/net_file.xsd">

    <location netOffset="0.00,0.00" convBoundary="0.00,0.00,400.00,400.00" origBoundary="0.00,0.00,400.00,400.00" projParameter="!"/>

    <edge id=":0_0" function="internal">
        <lane id=":0_0_0" index="0" speed="13.90" length="4.82" shape="-1.65,0.00 -0.83,-1.24 0.00,-1.65 0.83,-1.24 1.65,0.00"/>
    </edge>
    <edge id=":1_0" function="internal">
        <lane id=":1_0_0" index="0" speed="13.90" length="4.82" shape="398.35,0.00 399.17,-1.24 400.00,-1.65 400.82,-1.24 401.65,0.00"/>
    </edge>
    <edge id=":2_0" function="internal">
        <lane id=":2_0_0" index="0" speed="13.90" length="9.50" shape="-1.65,204.75 -1.65,195.25"/>
    </edge>
    <edge id=":2_1" function="internal">
        <lane id=":2_1_0" index="0" speed="13.90" length="5.28" shape="-1.65,204.75 -1.25,201.95 -0.05,199.95 0.05,199.89"/>
    </edge>
    <edge id=":2_2" function="internal">
        <lane id=":2_2_0" index="0" speed="13.90" length="2.41" shape="-1.65,204.75 -0.83,203.51 0.00,203.10"/>
    </edge>
    <edge id=":2_9" function="internal">
        <lane id=":2_9_0" index="0" speed="13.90" length="5.04" shape="0.05,199.89 1.95,198.75 4.75,198.35"/>
    </edge>
    <edge id=":2_10" function="internal">
        <lane id=":2_10_0" index="0" speed="13.90" length="2.41" shape="0.00,203.10 0.83,203.51 1.65,204.75"/>
    </edge>
    <edge id=":2_3" function="internal">
        <lane id=":2_3_0" index="0" speed="13.90" length="5.00" shape="4.75,201.65 3.39,201.84 2.43,202.43 1.84,203.39 1.65,204.75"/>
    </edge>
    <edge id=":2_4" function="internal">
        <lane id=":2_4_0" index="0" speed="13.90" length="10.32" shape="4.75,201.65 1.95,201.25 -0.05,200.05 -1.25,198.05 -1.65,195.25"/>
    </edge>
    <edge id=":2_5" function="internal">
        <lane id=":2_5_0" index="0" speed="13.90" length="4.82" shape="4.75,201.65 3.51,200.83 3.10,200.00 3.51,199.18 4.75,198.35"/>
    </edge>
    <edge id=":2_6" function="internal">
        <lane id=":2_6_0" index="0" speed="13.90" length="5.00" shape="1.65,195.25 1.84,196.61 2.43,197.58 3.39,198.16 4.75,198.35"/>
    </edge>
    <edge id=":2_7" function="internal">
        <lane id=":2_7_0" index="0" speed="13.90" length="9.50" shape="1.65,195.25 1.65,204.75"/>
    </edge>
    <edge id=":2_8" function="internal">
        <lane id=":2_8_0" index="0" speed="13.90" length="2.41" shape="1.65,195.25 0.83,196.49 0.00,196.90"/>
    </edge>
    <edge id=":2_11" function="internal">
        <lane id=":2_11_0" index="0" speed="13.90" length="2.41" shape="0.00,196.90 -0.83,196.49 -1.65,195.25"/>
    </edge>
    <edge id=":3_0" function="internal">
        <lane id=":3_0_0" index="0" speed="13.90" length="4.82" shape="300.00,101.65 298.76,100.82 298.35,100.00 298.76,99.17 300.00,98.35"/>
    </edge>
    <edge id=":4_0" function="internal">
        <lane id=":4_0_0" index="0" speed="13.90" length="5.00" shape="398.35,104.75 398.16,103.39 397.58,102.43 396.61,101.84 395.25,101.65"/>
    </edge>
    <edge id=":4_1" function="internal">
        <lane id=":4_1_0" index="0" speed="13.90" length="9.50" shape="398.35,104.75 398.35,95.25"/>
    </edge>
    <edge id=":4_2" function="internal">
        <lane id=":4_2_0" index="0" speed="13.90" length="2.41" shape="398.35,104.75 399.17,103.51 400.00,103.10"/>
    </edge>
    <edge id=":4_9" function="internal">
        <lane id=":4_9_0" index="0" speed="13.90" length="2.41" shape="400.00,103.10 400.82,103.51 401.65,104.75"/>
    </edge>
    <edge id=":4_3" function="internal">
        <lane id=":4_3_0" index="0" speed="13.90" length="9.50" shape="401.65,95.25 401.65,104.75"/>
    </edge>
    <edge id=":4_4" function="internal">
        <lane id=":4_4_0" index="0" speed="13.90" length="5.28" shape="401.65,95.25 401.25,98.05 400.05,100.05 399.95,100.11"/>
    </edge>
    <edge id=":4_5" function="internal">
        <lane id=":4_5_0" index="0" speed="13.90" length="2.41" shape="401.65,95.25 400.83,96.49 400.00,96.90"/>
    </edge>
    <edge id=":4_10" function="internal">
        <lane id=":4_10_0" index="0" speed="13.90" length="5.04" shape="399.95,100.11 398.05,101.25 395.25,101.65"/>
    </edge>
    <edge id=":4_11" function="internal">
        <lane id=":4_11_0" index="0" speed="13.90" length="2.41" shape="400.00,96.90 399.18,96.49 398.35,95.25"/>
    </edge>
    <edge id=":4_6" function="internal">
        <lane id=":4_6_0" index="0" speed="13.90" length="5.00" shape="395.25,98.35 396.61,98.16 397.58,97.57 398.16,96.61 398.35,95.25"/>
    </edge>
    <edge id=":4_7" function="internal">
        <lane id=":4_7_0" index="0" speed="13.90" length="10.32" shape="395.25,98.35 398.05,98.75 400.05,99.95 401.25,101.95 401.65,104.75"/>
    </edge>
    <edge id=":4_8" function="internal">
        <lane id=":4_8_0" index="0" speed="13.90" length="4.82" shape="395.25,98.35 396.49,99.18 396.90,100.00 396.49,100.83 395.25,101.65"/>
    </edge>
    <edge id=":5_0" function="internal">
        <lane id=":5_0_0" index="0" speed="13.90" length="10.43" shape="305.44,207.78 302.63,205.10 300.31,203.18 298.48,202.03 297.15,201.65"/>
    </edge>
    <edge id=":5_1" function="internal">
        <lane id=":5_1_0" index="0" speed="13.90" length="16.51" shape="305.44,207.78 302.15,203.65 301.71,200.71 304.10,198.94 309.35,198.35"/>
    </edge>
    <edge id=":5_2" function="internal">
        <lane id=":5_2_0" index="0" speed="13.90" length="4.82" shape="305.44,207.78 305.15,206.32 305.44,205.44 306.32,205.15 307.78,205.44"/>
    </edge>
    <edge id=":5_3" function="internal">
        <lane id=":5_3_0" index="0" speed="13.90" length="6.64" shape="309.35,201.65 307.24,201.89 306.27,202.60 306.45,203.78 307.78,205.44"/>
    </edge>
    <edge id=":5_4" function="internal">
        <lane id=":5_4_0" index="0" speed="13.90" length="12.19" shape="309.35,201.65 297.15,201.65"/>
    </edge>
    <edge id=":5_5" function="internal">
        <lane id=":5_5_0" index="0" speed="13.90" length="2.41" shape="309.35,201.65 308.11,200.83 307.70,200.00"/>
    </edge>
    <edge id=":5_9" function="internal">
        <lane id=":5_9_0" index="0" speed="13.90" length="2.41" shape="307.70,200.00 308.11,199.18 309.35,198.35"/>
    </edge>
    <edge id=":5_6" function="internal">
        <lane id=":5_6_0" index="0" speed="13.90" length="12.19" shape="297.15,198.35 309.35,198.35"/>
    </edge>
    <edge id=":5_7" function="internal">
        <lane id=":5_7_0" index="0" speed="13.90" length="4.66" shape="297.15,198.35 299.14,198.79 301.44,200.05"/>
    </edge>
    <edge id=":5_8" function="internal">
        <lane id=":5_8_0" index="0" speed="13.90" length="2.41" shape="297.15,198.35 298.39,199.17 298.80,200.00"/>
    </edge>
    <edge id=":5_10" function="internal">
        <lane id=":5_10_0" index="0" speed="13.90" length="8.33" shape="301.44,200.05 301.57,200.12 304.45,202.34 307.78,205.44"/>
    </edge>
    <edge id=":5_11" function="internal">
        <lane id=":5_11_0" index="0" speed="13.90" length="2.41" shape="298.80,200.00 298.39,200.82 297.15,201.65"/>
    </edge>
    <edge id=":6_0" function="internal">
        <lane id=":6_0_0" index="0" speed="13.90" length="7.90" shape="401.65,196.75 401.34,198.89 400.42,200.42 398.89,201.34 396.75,201.65"/>
    </edge>
    <edge id=":6_1" function="internal">
        <lane id=":6_1_0" index="0" speed="13.90" length="2.80" shape="401.65,196.75 400.83,197.99 400.00,198.40 399.65,198.23"/>
    </edge>
    <edge id=":6_4" function="internal">
        <lane id=":6_4_0" index="0" speed="13.90" length="2.02" shape="399.65,198.23 399.18,197.99 398.35,196.75"/>
    </edge>
    <edge id=":6_2" function="internal">
        <lane id=":6_2_0" index="0" speed="13.90" length="2.58" shape="396.75,198.35 397.45,198.25 397.95,197.95 398.25,197.45 398.35,196.75"/>
    </edge>
    <edge id=":6_3" function="internal">
        <lane id=":6_3_0" index="0" speed="13.90" length="2.20" shape="396.75,198.35 397.99,199.17 398.31,199.81"/>
    </edge>
    <edge id=":6_5" function="internal">
        <lane id=":6_5_0" index="0" speed="13.90" length="2.62" shape="398.31,199.81 398.40,200.00 397.99,200.82 396.75,201.65"/>
    </edge>
    <edge id=":7_0" function="internal">
        <lane id=":7_0_0" index="0" speed="13.90" length="4.82" shape="1.65,400.00 0.83,401.24 0.00,401.65 -0.83,401.24 -1.65,400.00"/>
    </edge>
    <edge id=":8_0" function="internal">
        <lane id=":8_0_0" index="0" speed="13.90" length="4.82" shape="301.17,401.17 299.71,401.46 298.83,401.17 298.54,400.29 298.83,398.83"/>
    </edge>
    <edge id=":9_0" function="internal">
        <lane id=":9_0_0" index="0" speed="13.90" length="7.90" shape="398.87,296.54 400.17,298.27 400.60,300.00 400.17,301.73 398.87,303.46"/>
    </edge>
    <edge id=":9_1" function="internal">
        <lane id=":9_1_0" index="0" speed="13.90" length="2.80" shape="398.87,296.54 399.16,297.99 398.87,298.87 398.50,298.99"/>
    </edge>
    <edge id=":9_4" function="internal">
        <lane id=":9_4_0" index="0" speed="13.90" length="2.02" shape="398.50,298.99 397.99,299.16 396.54,298.87"/>
    </edge>
    <edge id=":9_2" function="internal">
        <lane id=":9_2_0" index="0" speed="13.90" length="2.58" shape="396.54,301.13 396.96,300.57 397.10,300.00 396.96,299.43 396.54,298.87"/>
    </edge>
    <edge id=":9_3" function="internal">
        <lane id=":9_3_0" index="0" speed="13.90" length="2.20" shape="396.54,301.13 397.99,300.84 398.67,301.06"/>
    </edge>
    <edge id=":9_5" function="internal">
        <lane id=":9_5_0" index="0" speed="13.90" length="2.62" shape="398.67,301.06 398.87,301.13 399.16,302.01 398.87,303.46"/>
    </edge>

    <edge id="0to2" from="0" to="2" priority="-1">
        <lane id="0to2_0" index="0" speed="13.90" length="195.25" shape="1.65,0.00 1.65,195.25"/>
    </edge>
    <edge id="1to4" from="1" to="4" priority="-1">
        <lane id="1to4_0" index="0" speed="13.90" length="95.25" shape="401.65,0.00 401.65,95.25"/>
    </edge>
    <edge id="2to0" from="2" to="0" priority="-1">
        <lane id="2to0_0" index="0" speed="13.90" length="195.25" shape="-1.65,195.25 -1.65,0.00"/>
    </edge>
    <edge id="2to5" from="2" to="5" priority="-1">
        <lane id="2to5_0" index="0" speed="13.90" length="292.40" shape="4.75,198.35 297.15,198.35"/>
    </edge>
    <edge id="2to7" from="2" to="7" priority="-1">
        <lane id="2to7_0" index="0" speed="13.90" length="195.25" shape="1.65,204.75 1.65,400.00"/>
    </edge>
    <edge id="3to4" from="3" to="4" priority="-1">
        <lane id="3to4_0" index="0" speed="13.90" length="95.25" shape="300.00,98.35 395.25,98.35"/>
    </edge>
    <edge id="4to1" from="4" to="1" priority="-1">
        <lane id="4to1_0" index="0" speed="13.90" length="95.25" shape="398.35,95.25 398.35,0.00"/>
    </edge>
    <edge id="4to3" from="4" to="3" priority="-1">
        <lane id="4to3_0" index="0" speed="13.90" length="95.25" shape="395.25,101.65 300.00,101.65"/>
    </edge>
    <edge id="4to6" from="4" to="6" priority="-1">
        <lane id="4to6_0" index="0" speed="13.90" length="92.00" shape="401.65,104.75 401.65,196.75"/>
    </edge>
    <edge id="5to2" from="5" to="2" priority="-1">
        <lane id="5to2_0" index="0" speed="13.90" length="292.40" shape="297.15,201.65 4.75,201.65"/>
    </edge>
    <edge id="5to6" from="5" to="6" priority="-1">
        <lane id="5to6_0" index="0" speed="13.90" length="87.40" shape="309.35,198.35 396.75,198.35"/>
    </edge>
    <edge id="5to9" from="5" to="9" priority="-1">
        <lane id="5to9_0" index="0" speed="13.90" length="128.83" shape="307.78,205.44 398.87,296.54"/>
    </edge>
    <edge id="6to4" from="6" to="4" priority="-1">
        <lane id="6to4_0" index="0" speed="13.90" length="92.00" shape="398.35,196.75 398.35,104.75"/>
    </edge>
    <edge id="6to5" from="6" to="5" priority="-1">
        <lane id="6to5_0" index="0" speed="13.90" length="87.40" shape="396.75,201.65 309.35,201.65"/>
    </edge>
    <edge id="7to2" from="7" to="2" priority="-1">
        <lane id="7to2_0" index="0" speed="13.90" length="195.25" shape="-1.65,400.00 -1.65,204.75"/>
    </edge>
    <edge id="8to9" from="8" to="9" priority="-1">
        <lane id="8to9_0" index="0" speed="13.90" length="138.17" shape="298.83,398.83 396.54,301.13"/>
    </edge>
    <edge id="9to5" from="9" to="5" priority="-1">
        <lane id="9to5_0" index="0" speed="13.90" length="128.83" shape="396.54,298.87 305.44,207.78"/>
    </edge>
    <edge id="9to8" from="9" to="8" priority="-1">
        <lane id="9to8_0" index="0" speed="13.90" length="138.17" shape="398.87,303.46 301.17,401.17"/>
    </edge>

    <junction id="0" type="priority" x="0.00" y="0.00" incLanes="2to0_0" intLanes=":0_0_0" shape="0.05,0.00 -3.25,0.00 -0.05,0.00">
        <request index="0" response="0" foes="0" cont="0"/>
    </junction>
    <junction id="1" type="priority" x="400.00" y="0.00" incLanes="4to1_0" intLanes=":1_0_0" shape="400.05,0.00 396.75,0.00 399.95,0.00">
        <request index="0" response="0" foes="0" cont="0"/>
    </junction>
    <junction id="2" type="priority" x="0.00" y="200.00" incLanes="7to2_0 5to2_0 0to2_0" intLanes=":2_0_0 :2_9_0 :2_10_0 :2_3_0 :2_4_0 :2_5_0 :2_6_0 :2_7_0 :2_11_0" shape="-3.25,204.75 3.25,204.75 4.75,203.25 4.75,196.75 3.25,195.25 -3.25,195.25">
        <request index="0" response="000000000" foes="100010000" cont="0"/>
        <request index="1" response="011000000" foes="011110000" cont="1"/>
        <request index="2" response="010001000" foes="010001000" cont="1"/>
        <request index="3" response="010000000" foes="010000100" cont="0"/>
        <request index="4" response="010000011" foes="110000011" cont="0"/>
        <request index="5" response="001000010" foes="001000010" cont="0"/>
        <request index="6" response="000000000" foes="000100010" cont="0"/>
        <request index="7" response="000000000" foes="000011110" cont="0"/>
        <request index="8" response="000010001" foes="000010001" cont="1"/>
    </junction>
    <junction id="3" type="priority" x="300.00" y="100.00" incLanes="4to3_0" intLanes=":3_0_0" shape="300.00,99.95 300.00,103.25 300.00,100.05">
        <request index="0" response="0" foes="0" cont="0"/>
    </junction>
    <junction id="4" type="priority" x="400.00" y="100.00" incLanes="6to4_0 1to4_0 3to4_0" intLanes=":4_0_0 :4_1_0 :4_9_0 :4_3_0 :4_10_0 :4_11_0 :4_6_0 :4_7_0 :4_8_0" shape="396.75,104.75 403.25,104.75 403.25,95.25 396.75,95.25 395.25,96.75 395.25,103.25">
        <request index="0" response="000000000" foes="100010000" cont="0"/>
        <request index="1" response="000000000" foes="011110000" cont="0"/>
        <request index="2" response="010001000" foes="010001000" cont="1"/>
        <request index="3" response="000000000" foes="010000100" cont="0"/>
        <request index="4" response="000000011" foes="110000011" cont="1"/>
        <request index="5" response="001000010" foes="001000010" cont="1"/>
        <request index="6" response="000000010" foes="000100010" cont="0"/>
        <request index="7" response="000011010" foes="000011110" cont="0"/>
        <request index="8" response="000010001" foes="000010001" cont="0"/>
    </junction>
    <junction id="5" type="priority" x="300.00" y="200.00" incLanes="9to5_0 6to5_0 2to5_0" intLanes=":5_0_0 :5_1_0 :5_2_0 :5_3_0 :5_4_0 :5_9_0 :5_6_0 :5_10_0 :5_11_0" shape="304.31,208.91 308.91,204.31 309.35,203.25 309.35,196.75 297.15,196.75 297.15,203.25">
        <request index="0" response="000010000" foes="100010000" cont="0"/>
        <request index="1" response="011010000" foes="011110000" cont="0"/>
        <request index="2" response="010001000" foes="010001000" cont="0"/>
        <request index="3" response="000000000" foes="010000100" cont="0"/>
        <request index="4" response="000000000" foes="110000011" cont="0"/>
        <request index="5" response="001000010" foes="001000010" cont="1"/>
        <request index="6" response="000000000" foes="000100010" cont="0"/>
        <request index="7" response="000011000" foes="000011110" cont="1"/>
        <request index="8" response="000010001" foes="000010001" cont="1"/>
    </junction>
    <junction id="6" type="priority" x="400.00" y="200.00" incLanes="4to6_0 5to6_0" intLanes=":6_0_0 :6_4_0 :6_2_0 :6_5_0" shape="403.25,196.75 396.75,196.75 396.75,203.25">
        <request index="0" response="0000" foes="1000" cont="0"/>
        <request index="1" response="0100" foes="0100" cont="1"/>
        <request index="2" response="0000" foes="0010" cont="0"/>
        <request index="3" response="0001" foes="0001" cont="1"/>
    </junction>
    <junction id="7" type="priority" x="0.00" y="400.00" incLanes="2to7_0" intLanes=":7_0_0" shape="-0.05,400.00 3.25,400.00 0.05,400.00">
        <request index="0" response="0" foes="0" cont="0"/>
    </junction>
    <junction id="8" type="priority" x="300.00" y="400.00" incLanes="9to8_0" intLanes=":8_0_0" shape="299.96,399.96 302.30,402.30 300.04,400.04">
        <request index="0" response="0" foes="0" cont="0"/>
    </junction>
    <junction id="9" type="priority" x="400.00" y="300.00" incLanes="5to9_0 8to9_0" intLanes=":9_0_0 :9_4_0 :9_2_0 :9_5_0" shape="400.00,295.40 395.40,300.00 400.00,304.60">
        <request index="0" response="0000" foes="1000" cont="0"/>
        <request index="1" response="0100" foes="0100" cont="1"/>
        <request index="2" response="0000" foes="0010" cont="0"/>
        <request index="3" response="0001" foes="0001" cont="1"/>
    </junction>

    <junction id=":2_9_0" type="internal" x="0.05" y="199.89" incLanes=":2_1_0 0to2_0" intLanes=":2_4_0 :2_5_0 :2_6_0 :2_7_0"/>
    <junction id=":2_10_0" type="internal" x="0.00" y="203.10" incLanes=":2_2_0 0to2_0 5to2_0" intLanes=":2_3_0 :2_7_0"/>
    <junction id=":2_11_0" type="internal" x="0.00" y="196.90" incLanes=":2_8_0 5to2_0 7to2_0" intLanes=":2_0_0 :2_4_0"/>
    <junction id=":4_9_0" type="internal" x="400.00" y="103.10" incLanes=":4_2_0 1to4_0 3to4_0" intLanes=":4_3_0 :4_7_0"/>
    <junction id=":4_10_0" type="internal" x="399.95" y="100.11" incLanes=":4_4_0 6to4_0" intLanes=":4_0_0 :4_1_0 :4_7_0 :4_8_0"/>
    <junction id=":4_11_0" type="internal" x="400.00" y="96.90" incLanes=":4_5_0 3to4_0 6to4_0" intLanes=":4_1_0 :4_6_0"/>
    <junction id=":5_9_0" type="internal" x="307.70" y="200.00" incLanes=":5_5_0 2to5_0 9to5_0" intLanes=":5_1_0 :5_6_0"/>
    <junction id=":5_10_0" type="internal" x="301.44" y="200.05" incLanes=":5_7_0 6to5_0" intLanes=":5_1_0 :5_2_0 :5_3_0 :5_4_0"/>
    <junction id=":5_11_0" type="internal" x="298.80" y="200.00" incLanes=":5_8_0 6to5_0 9to5_0" intLanes=":5_0_0 :5_4_0"/>
    <junction id=":6_4_0" type="internal" x="399.65" y="198.23" incLanes=":6_1_0 5to6_0" intLanes=":6_2_0"/>
    <junction id=":6_5_0" type="internal" x="398.31" y="199.81" incLanes=":6_3_0 4to6_0" intLanes=":6_0_0"/>
    <junction id=":9_4_0" type="internal" x="398.50" y="298.99" incLanes=":9_1_0 8to9_0" intLanes=":9_2_0"/>
    <junction id=":9_5_0" type="internal" x="398.67" y="301.06" incLanes=":9_3_0 5to9_0" intLanes=":9_0_0"/>

    <connection from="0to2" to="2to5" fromLane="0" toLane="0" via=":2_6_0" dir="r" state="M"/>
    <connection from="0to2" to="2to7" fromLane="0" toLane="0" via=":2_7_0" dir="s" state="M"/>
    <connection from="0to2" to="2to0" fromLane="0" toLane="0" via=":2_8_0" dir="t" state="m"/>
    <connection from="1to4" to="4to6" fromLane="0" toLane="0" via=":4_3_0" dir="s" state="M"/>
    <connection from="1to4" to="4to3" fromLane="0" toLane="0" via=":4_4_0" dir="l" state="m"/>
    <connection from="1to4" to="4to1" fromLane="0" toLane="0" via=":4_5_0" dir="t" state="m"/>
    <connection from="2to0" to="0to2" fromLane="0" toLane="0" via=":0_0_0" dir="t" state="M"/>
    <connection from="2to5" to="5to6" fromLane="0" toLane="0" via=":5_6_0" dir="s" state="M"/>
    <connection from="2to5" to="5to9" fromLane="0" toLane="0" via=":5_7_0" dir="l" state="m"/>
    <connection from="2to5" to="5to2" fromLane="0" toLane="0" via=":5_8_0" dir="t" state="m"/>
    <connection from="2to7" to="7to2" fromLane="0" toLane="0" via=":7_0_0" dir="t" state="M"/>
    <connection from="3to4" to="4to1" fromLane="0" toLane="0" via=":4_6_0" dir="r" state="m"/>
    <connection from="3to4" to="4to6" fromLane="0" toLane="0" via=":4_7_0" dir="l" state="m"/>
    <connection from="3to4" to="4to3" fromLane="0" toLane="0" via=":4_8_0" dir="t" state="m"/>
    <connection from="4to1" to="1to4" fromLane="0" toLane="0" via=":1_0_0" dir="t" state="M"/>
    <connection from="4to3" to="3to4" fromLane="0" toLane="0" via=":3_0_0" dir="t" state="M"/>
    <connection from="4to6" to="6to5" fromLane="0" toLane="0" via=":6_0_0" dir="l" state="M"/>
    <connection from="4to6" to="6to4" fromLane="0" toLane="0" via=":6_1_0" dir="t" state="m"/>
    <connection from="5to2" to="2to7" fromLane="0" toLane="0" via=":2_3_0" dir="r" state="m"/>
    <connection from="5to2" to="2to0" fromLane="0" toLane="0" via=":2_4_0" dir="l" state="m"/>
    <connection from="5to2" to="2to5" fromLane="0" toLane="0" via=":2_5_0" dir="t" state="m"/>
    <connection from="5to6" to="6to4" fromLane="0" toLane="0" via=":6_2_0" dir="r" state="M"/>
    <connection from="5to6" to="6to5" fromLane="0" toLane="0" via=":6_3_0" dir="t" state="m"/>
    <connection from="5to9" to="9to8" fromLane="0" toLane="0" via=":9_0_0" dir="l" state="M"/>
    <connection from="5to9" to="9to5" fromLane="0" toLane="0" via=":9_1_0" dir="t" state="m"/>
    <connection from="6to4" to="4to3" fromLane="0" toLane="0" via=":4_0_0" dir="r" state="M"/>
    <connection from="6to4" to="4to1" fromLane="0" toLane="0" via=":4_1_0" dir="s" state="M"/>
    <connection from="6to4" to="4to6" fromLane="0" toLane="0" via=":4_2_0" dir="t" state="m"/>
    <connection from="6to5" to="5to9" fromLane="0" toLane="0" via=":5_3_0" dir="r" state="M"/>
    <connection from="6to5" to="5to2" fromLane="0" toLane="0" via=":5_4_0" dir="s" state="M"/>
    <connection from="6to5" to="5to6" fromLane="0" toLane="0" via=":5_5_0" dir="t" state="m"/>
    <connection from="7to2" to="2to0" fromLane="0" toLane="0" via=":2_0_0" dir="s" state="M"/>
    <connection from="7to2" to="2to5" fromLane="0" toLane="0" via=":2_1_0" dir="l" state="m"/>
    <connection from="7to2" to="2to7" fromLane="0" toLane="0" via=":2_2_0" dir="t" state="m"/>
    <connection from="8to9" to="9to5" fromLane="0" toLane="0" via=":9_2_0" dir="r" state="M"/>
    <connection from="8to9" to="9to8" fromLane="0" toLane="0" via=":9_3_0" dir="t" state="m"/>
    <connection from="9to5" to="5to2" fromLane="0" toLane="0" via=":5_0_0" dir="r" state="m"/>
    <connection from="9to5" to="5to6" fromLane="0" toLane="0" via=":5_1_0" dir="l" state="m"/>
    <connection from="9to5" to="5to9" fromLane="0" toLane="0" via=":5_2_0" dir="t" state="m"/>
    <connection from="9to8" to="8to9" fromLane="0" toLane="0" via=":8_0_0" dir="t" state="M"/>

    <connection from=":0_0" to="0to2" fromLane="0" toLane="0" dir="t" state="M"/>
    <connection from=":1_0" to="1to4" fromLane="0" toLane="0" dir="t" state="M"/>
    <connection from=":2_0" to="2to0" fromLane="0" toLane="0" dir="s" state="M"/>
    <connection from=":2_1" to="2to5" fromLane="0" toLane="0" via=":2_9_0" dir="l" state="m"/>
    <connection from=":2_9" to="2to5" fromLane="0" toLane="0" dir="l" state="M"/>
    <connection from=":2_2" to="2to7" fromLane="0" toLane="0" via=":2_10_0" dir="t" state="m"/>
    <connection from=":2_10" to="2to7" fromLane="0" toLane="0" dir="t" state="M"/>
    <connection from=":2_3" to="2to7" fromLane="0" toLane="0" dir="r" state="M"/>
    <connection from=":2_4" to="2to0" fromLane="0" toLane="0" dir="l" state="M"/>
    <connection from=":2_5" to="2to5" fromLane="0" toLane="0" dir="t" state="M"/>
    <connection from=":2_6" to="2to5" fromLane="0" toLane="0" dir="r" state="M"/>
    <connection from=":2_7" to="2to7" fromLane="0" toLane="0" dir="s" state="M"/>
    <connection from=":2_8" to="2to0" fromLane="0" toLane="0" via=":2_11_0" dir="t" state="m"/>
    <connection from=":2_11" to="2to0" fromLane="0" toLane="0" dir="t" state="M"/>
    <connection from=":3_0" to="3to4" fromLane="0" toLane="0" dir="t" state="M"/>
    <connection from=":4_0" to="4to3" fromLane="0" toLane="0" dir="r" state="M"/>
    <connection from=":4_1" to="4to1" fromLane="0" toLane="0" dir="s" state="M"/>
    <connection from=":4_2" to="4to6" fromLane="0" toLane="0" via=":4_9_0" dir="t" state="m"/>
    <connection from=":4_9" to="4to6" fromLane="0" toLane="0" dir="t" state="M"/>
    <connection from=":4_3" to="4to6" fromLane="0" toLane="0" dir="s" state="M"/>
    <connection from=":4_4" to="4to3" fromLane="0" toLane="0" via=":4_10_0" dir="l" state="m"/>
    <connection from=":4_10" to="4to3" fromLane="0" toLane="0" dir="l" state="M"/>
    <connection from=":4_5" to="4to1" fromLane="0" toLane="0" via=":4_11_0" dir="t" state="m"/>
    <connection from=":4_11" to="4to1" fromLane="0" toLane="0" dir="t" state="M"/>
    <connection from=":4_6" to="4to1" fromLane="0" toLane="0" dir="r" state="M"/>
    <connection from=":4_7" to="4to6" fromLane="0" toLane="0" dir="l" state="M"/>
    <connection from=":4_8" to="4to3" fromLane="0" toLane="0" dir="t" state="M"/>
    <connection from=":5_0" to="5to2" fromLane="0" toLane="0" dir="r" state="M"/>
    <connection from=":5_1" to="5to6" fromLane="0" toLane="0" dir="l" state="M"/>
    <connection from=":5_2" to="5to9" fromLane="0" toLane="0" dir="t" state="M"/>
    <connection from=":5_3" to="5to9" fromLane="0" toLane="0" dir="r" state="M"/>
    <connection from=":5_4" to="5to2" fromLane="0" toLane="0" dir="s" state="M"/>
    <connection from=":5_5" to="5to6" fromLane="0" toLane="0" via=":5_9_0" dir="t" state="m"/>
    <connection from=":5_9" to="5to6" fromLane="0" toLane="0" dir="t" state="M"/>
    <connection from=":5_6" to="5to6" fromLane="0" toLane="0" dir="s" state="M"/>
    <connection from=":5_7" to="5to9" fromLane="0" toLane="0" via=":5_10_0" dir="l" state="m"/>
    <connection from=":5_10" to="5to9" fromLane="0" toLane="0" dir="l" state="M"/>
    <connection from=":5_8" to="5to2" fromLane="0" toLane="0" via=":5_11_0" dir="t" state="m"/>
    <connection from=":5_11" to="5to2" fromLane="0" toLane="0" dir="t" state="M"/>
    <connection from=":6_0" to="6to5" fromLane="0" toLane="0" dir="l" state="M"/>
    <connection from=":6_1" to="6to4" fromLane="0" toLane="0" via=":6_4_0" dir="t" state="m"/>
    <connection from=":6_4" to="6to4" fromLane="0" toLane="0" dir="t" state="M"/>
    <connection from=":6_2" to="6to4" fromLane="0" toLane="0" dir="r" state="M"/>
    <connection from=":6_3" to="6to5" fromLane="0" toLane="0" via=":6_5_0" dir="t" state="m"/>
    <connection from=":6_5" to="6to5" fromLane="0" toLane="0" dir="t" state="M"/>
    <connection from=":7_0" to="7to2" fromLane="0" toLane="0" dir="t" state="M"/>
    <connection from=":8_0" to="8to9" fromLane="0" toLane="0" dir="t" state="M"/>
    <connection from=":9_0" to="9to8" fromLane="0" toLane="0" dir="l" state="M"/>
    <connection from=":9_1" to="9to5" fromLane="0" toLane="0" via=":9_4_0" dir="t" state="m"/>
    <connection from=":9_4" to="9to5" fromLane="0" toLane="0" dir="t" state="M"/>
    <connection from=":9_2" to="9to5" fromLane="0" toLane="0" dir="r" state="M"/>
    <connection from=":9_3" to="9to8" fromLane="0" toLane="0" via=":9_5_0" dir="t" state="m"/>
    <connection from=":9_5" to="9to8" fromLane="0" toLane="0" dir="t" state="M"/>

</net>
