<!-- filename: hello.edg.xml -->
<edges>
  <edge from="0" id="0to2" to="2" />
  <edge from="2" id="2to0" to="0" />
  <edge from="1" id="1to4" to="4" />
  <edge from="4" id="4to1" to="1" />
  <edge from="4" id="4to3" to="3" />
  <edge from="3" id="3to4" to="4" />
  <edge from="4" id="4to6" to="6" />
  <edge from="6" id="6to4" to="4" />
  <edge from="5" id="5to6" to="6" />
  <edge from="6" id="6to5" to="5" />
  <edge from="8" id="8to7" to="7" />
  <edge from="7" id="7to8" to="8" />
  <edge from="2" id="2to7" to="7" />
  <edge from="7" id="7to2" to="2" />
  <edge from="8" id="8to5" to="5" />
  <edge from="5" id="5to8" to="8" />
</edges>
