<!-- <edges>
	<edge from="0" id="0to1" to="1"/>
	<edge from="1" id="1to0" to="0"/>
	<edge from="1" id="1to2" to="2"/>
	<edge from="2" id="2to1" to="1"/>

	<edge from="3" id="3to4" to="4"/>
	<edge from="4" id="4to3" to="3"/>
	<edge from="4" id="4to5" to="5"/>
	<edge from="5" id="5to4" to="4"/>

	<edge from="6" id="6to7" to="7"/>
	<edge from="7" id="7to6" to="6"/>
	<edge from="7" id="7to8" to="8"/>
	<edge from="8" id="8to7" to="7"/>

	<edge from="0" id="0to3" to="3"/>
	<edge from="3" id="3to0" to="0"/>
	<edge from="3" id="3to6" to="6"/>
	<edge from="6" id="6to3" to="3"/>

	<edge from="1" id="1to4" to="4"/>
	<edge from="4" id="4to1" to="1"/>
	<edge from="4" id="4to7" to="7"/>
	<edge from="7" id="7to4" to="4"/>

	<edge from="2" id="2to5" to="5"/>
	<edge from="5" id="5to2" to="2"/>
	<edge from="5" id="5to8" to="8"/>
	<edge from="8" id="8to5" to="5"/>
</edges> -->



<!-- <edges>
	<edge from="0" id="0to1" to="1"/>
	<edge from="1" id="1to0" to="0"/>
	<edge from="1" id="1to2" to="2"/>
	<edge from="2" id="2to1" to="1"/>
	<edge from="2" id="2to3" to="3"/>
	<edge from="3" id="3to2" to="2"/>

	<edge from="4" id="4to5" to="5"/>
	<edge from="5" id="5to4" to="4"/>
	<edge from="5" id="5to6" to="6"/>
	<edge from="6" id="6to5" to="5"/>
	<edge from="6" id="6to7" to="7"/>
	<edge from="7" id="7to6" to="6"/>

	<edge from="8" id="8to9" to="9"/>
	<edge from="9" id="9to8" to="8"/>
	<edge from="9" id="9to10" to="10"/>
	<edge from="10" id="10to9" to="9"/>
	<edge from="10" id="10to11" to="11"/>
	<edge from="11" id="11to10" to="10"/>

	<edge from="12" id="12to13" to="13"/>
	<edge from="13" id="13to12" to="12"/>
	<edge from="13" id="13to14" to="14"/>
	<edge from="14" id="14to13" to="13"/>
	<edge from="14" id="14to15" to="15"/>
	<edge from="15" id="15to14" to="14"/>

	<edge from="0" id="0to4" to="4"/>
	<edge from="4" id="4to0" to="0"/>
	<edge from="4" id="4to8" to="8"/>
	<edge from="8" id="8to4" to="4"/>
	<edge from="8" id="8to12" to="12"/>
	<edge from="12" id="12to8" to="8"/>

	<edge from="1" id="1to5" to="5"/>
	<edge from="5" id="5to1" to="1"/>
	<edge from="5" id="5to9" to="9"/>
	<edge from="9" id="9to5" to="5"/>
	<edge from="9" id="9to13" to="13"/>
	<edge from="13" id="13to9" to="9"/>

	<edge from="2" id="2to6" to="6"/>
	<edge from="6" id="6to2" to="2"/>
	<edge from="6" id="6to10" to="10"/>
	<edge from="10" id="10to6" to="6"/>
	<edge from="10" id="10to14" to="14"/>
	<edge from="14" id="14to10" to="10"/>

	<edge from="3" id="3to7" to="7"/>
	<edge from="7" id="7to3" to="3"/>
	<edge from="7" id="7to11" to="11"/>
	<edge from="11" id="11to7" to="7"/>
	<edge from="11" id="11to15" to="15"/>
	<edge from="15" id="15to11" to="11"/>
</edges>  -->
<edges>
	<edge from="0" id="0to2" to="2"/>
	<edge from="2" id="2to0" to="0"/>
	<edge from="3" id="3to2" to="2"/>
	<edge from="2" id="2to3" to="3"/>
	<edge from="0" id="0to3" to="3"/>
	<edge from="3" id="3to0" to="0"/>
	<edge from="0" id="0to1" to="1"/>
	<edge from="1" id="1to0" to="0"/>
	<edge from="1" id="1to4" to="4"/>
	<edge from="4" id="4to1" to="1"/>
	<edge from="3" id="3to4" to="4"/>
	<edge from="4" id="4to3" to="3"/>
	<edge from="6" id="6to4" to="4"/>
	<edge from="4" id="4to6" to="6"/>
	<edge from="6" id="6to5" to="5"/>
	<edge from="5" id="5to6" to="6"/>
	<edge from="3" id="3to5" to="5"/>
	<edge from="5" id="5to3" to="3"/>
	<edge from="2" id="2to5" to="5"/>
	<edge from="5" id="5to2" to="2"/>
	<edge from="2" id="2to7" to="7"/>
	<edge from="7" id="7to2" to="2"/>
	<edge from="8" id="8to5" to="5"/>
	<edge from="5" id="5to8" to="8"/>
	<edge from="8" id="8to7" to="7"/>
	<edge from="7" id="7to8" to="8"/>
	<edge from="5" id="5to7" to="7"/>
	<edge from="7" id="7to5" to="5"/>

</edges>