<?xml version="1.0" encoding="UTF-8"?>

<!-- generated on Wed Jan 30 00:33:42 2019 by SUMO netconvert Version 0.32.0
<?xml version="1.0" encoding="UTF-8"?>

<configuration xmlns:xsi="http://www.w3.org/2001/XMLSchema-instance" xsi:noNamespaceSchemaLocation="http://sumo.dlr.de/xsd/netconvertConfiguration.xsd">

    <input>
        <node-files value="random.nod.xml"/>
        <edge-files value="random.edg.xml"/>
    </input>

    <output>
        <output-file value="random.net.xml"/>
    </output>

</configuration>
-->

<net version="0.27" xmlns:xsi="http://www.w3.org/2001/XMLSchema-instance" xsi:noNamespaceSchemaLocation="http://sumo.dlr.de/xsd/net_file.xsd">

    <location netOffset="0.00,0.00" convBoundary="0.00,0.00,400.00,400.00" origBoundary="0.00,0.00,400.00,400.00" projParameter="!"/>

    <edge id=":0_0" function="internal">
        <lane id=":0_0_0" index="0" speed="13.90" length="26.15" shape="-1.65,6.01 -0.20,2.66 4.14,0.26 11.39,-1.17 21.53,-1.65"/>
    </edge>
    <edge id=":0_1" function="internal">
        <lane id=":0_1_0" index="0" speed="13.90" length="8.54" shape="-1.65,6.01 -0.24,2.85 4.00,1.67 4.68,1.75"/>
    </edge>
    <edge id=":0_2" function="internal">
        <lane id=":0_2_0" index="0" speed="13.90" length="3.10" shape="-1.65,6.01 -0.83,4.77 0.00,4.36 0.61,4.67"/>
    </edge>
    <edge id=":0_9" function="internal">
        <lane id=":0_9_0" index="0" speed="13.90" length="16.69" shape="4.68,1.75 11.06,2.47 20.94,5.24"/>
    </edge>
    <edge id=":0_10" function="internal">
        <lane id=":0_10_0" index="0" speed="13.90" length="1.72" shape="0.61,4.67 0.83,4.77 1.65,6.01"/>
    </edge>
    <edge id=":0_3" function="internal">
        <lane id=":0_3_0" index="0" speed="13.90" length="19.29" shape="19.90,8.37 11.92,5.94 6.21,4.74 2.79,4.76 1.65,6.01"/>
    </edge>
    <edge id=":0_4" function="internal">
        <lane id=":0_4_0" index="0" speed="13.90" length="33.33" shape="19.90,8.37 8.73,3.99 5.27,0.86 9.54,-1.02 21.53,-1.65"/>
    </edge>
    <edge id=":0_5" function="internal">
        <lane id=":0_5_0" index="0" speed="13.90" length="4.82" shape="19.90,8.37 18.99,7.20 18.86,6.29 19.51,5.63 20.94,5.24"/>
    </edge>
    <edge id=":0_6" function="internal">
        <lane id=":0_6_0" index="0" speed="13.90" length="11.95" shape="21.53,1.65 17.23,1.87 15.70,2.55 16.94,3.67 20.94,5.24"/>
    </edge>
    <edge id=":0_7" function="internal">
        <lane id=":0_7_0" index="0" speed="13.90" length="21.21" shape="21.53,1.65 12.83,1.92 6.62,2.74 2.89,4.10 1.65,6.01"/>
    </edge>
    <edge id=":0_8" function="internal">
        <lane id=":0_8_0" index="0" speed="13.90" length="2.41" shape="21.53,1.65 20.29,0.83 19.88,0.00"/>
    </edge>
    <edge id=":0_11" function="internal">
        <lane id=":0_11_0" index="0" speed="13.90" length="2.41" shape="19.88,0.00 20.29,-0.83 21.53,-1.65"/>
    </edge>
    <edge id=":1_0" function="internal">
        <lane id=":1_0_0" index="0" speed="13.90" length="2.58" shape="398.35,3.25 398.25,2.55 397.95,2.05 397.45,1.75 396.75,1.65"/>
    </edge>
    <edge id=":1_1" function="internal">
        <lane id=":1_1_0" index="0" speed="13.90" length="2.20" shape="398.35,3.25 399.17,2.01 399.81,1.69"/>
    </edge>
    <edge id=":1_4" function="internal">
        <lane id=":1_4_0" index="0" speed="13.90" length="2.62" shape="399.81,1.69 400.00,1.60 400.82,2.01 401.65,3.25"/>
    </edge>
    <edge id=":1_2" function="internal">
        <lane id=":1_2_0" index="0" speed="13.90" length="7.90" shape="396.75,-1.65 398.89,-1.34 400.42,-0.43 401.34,1.11 401.65,3.25"/>
    </edge>
    <edge id=":1_3" function="internal">
        <lane id=":1_3_0" index="0" speed="13.90" length="2.80" shape="396.75,-1.65 397.99,-0.83 398.40,0.00 398.23,0.35"/>
    </edge>
    <edge id=":1_5" function="internal">
        <lane id=":1_5_0" index="0" speed="13.90" length="2.02" shape="398.23,0.35 397.99,0.83 396.75,1.65"/>
    </edge>
    <edge id=":2_0" function="internal">
        <lane id=":2_0_0" index="0" speed="13.90" length="10.76" shape="-1.65,204.75 -1.65,193.99"/>
    </edge>
    <edge id=":2_1" function="internal">
        <lane id=":2_1_0" index="0" speed="13.90" length="3.78" shape="-1.65,204.75 -0.30,201.70 0.05,201.42"/>
    </edge>
    <edge id=":2_2" function="internal">
        <lane id=":2_2_0" index="0" speed="13.90" length="3.43" shape="-1.65,204.75 -0.20,201.95 0.05,201.83"/>
    </edge>
    <edge id=":2_3" function="internal">
        <lane id=":2_3_0" index="0" speed="13.90" length="2.41" shape="-1.65,204.75 -0.83,203.51 0.00,203.10"/>
    </edge>
    <edge id=":2_16" function="internal">
        <lane id=":2_16_0" index="0" speed="13.90" length="22.29" shape="0.05,201.42 3.74,198.50 10.47,195.14 19.90,191.63"/>
    </edge>
    <edge id=":2_17" function="internal">
        <lane id=":2_17_0" index="0" speed="13.90" length="22.00" shape="0.05,201.83 4.14,199.95 11.39,198.75 21.53,198.35"/>
    </edge>
    <edge id=":2_18" function="internal">
        <lane id=":2_18_0" index="0" speed="13.90" length="2.41" shape="0.00,203.10 0.83,203.51 1.65,204.75"/>
    </edge>
    <edge id=":2_4" function="internal">
        <lane id=":2_4_0" index="0" speed="13.90" length="20.63" shape="21.53,201.65 12.83,201.84 6.62,202.43 2.89,203.39 1.65,204.75"/>
    </edge>
    <edge id=":2_5" function="internal">
        <lane id=":2_5_0" index="0" speed="13.90" length="26.15" shape="21.53,201.65 11.39,201.17 4.14,199.74 -0.20,197.34 -1.65,193.99"/>
    </edge>
    <edge id=":2_6" function="internal">
        <lane id=":2_6_0" index="0" speed="13.90" length="33.33" shape="21.53,201.65 9.54,201.02 5.27,199.14 8.73,196.01 19.90,191.63"/>
    </edge>
    <edge id=":2_7" function="internal">
        <lane id=":2_7_0" index="0" speed="13.90" length="4.82" shape="21.53,201.65 20.29,200.83 19.88,200.00 20.29,199.18 21.53,198.35"/>
    </edge>
    <edge id=":2_8" function="internal">
        <lane id=":2_8_0" index="0" speed="13.90" length="11.95" shape="20.94,194.76 16.94,196.33 15.70,197.45 17.23,198.13 21.53,198.35"/>
    </edge>
    <edge id=":2_9" function="internal">
        <lane id=":2_9_0" index="0" speed="13.90" length="22.17" shape="20.94,194.76 12.50,197.79 6.47,200.47 2.86,202.79 1.65,204.75"/>
    </edge>
    <edge id=":2_10" function="internal">
        <lane id=":2_10_0" index="0" speed="13.90" length="25.23" shape="20.94,194.76 11.06,197.53 4.00,198.33 -0.24,197.15 -1.65,193.99"/>
    </edge>
    <edge id=":2_11" function="internal">
        <lane id=":2_11_0" index="0" speed="13.90" length="4.82" shape="20.94,194.76 19.51,194.37 18.86,193.71 18.99,192.80 19.90,191.63"/>
    </edge>
    <edge id=":2_12" function="internal">
        <lane id=":2_12_0" index="0" speed="13.90" length="19.29" shape="1.65,193.99 2.79,195.24 6.21,195.26 11.92,194.06 19.90,191.63"/>
    </edge>
    <edge id=":2_13" function="internal">
        <lane id=":2_13_0" index="0" speed="13.90" length="21.21" shape="1.65,193.99 2.89,195.90 6.62,197.26 12.83,198.08 21.53,198.35"/>
    </edge>
    <edge id=":2_14" function="internal">
        <lane id=":2_14_0" index="0" speed="13.90" length="10.76" shape="1.65,193.99 1.65,204.75"/>
    </edge>
    <edge id=":2_15" function="internal">
        <lane id=":2_15_0" index="0" speed="13.90" length="2.41" shape="1.65,193.99 0.83,195.23 0.00,195.64"/>
    </edge>
    <edge id=":2_19" function="internal">
        <lane id=":2_19_0" index="0" speed="13.90" length="2.41" shape="0.00,195.64 -0.83,195.23 -1.65,193.99"/>
    </edge>
    <edge id=":3_0" function="internal">
        <lane id=":3_0_0" index="0" speed="13.90" length="9.78" shape="298.35,106.01 297.82,104.56 296.22,103.93 293.57,104.12 289.85,105.12"/>
    </edge>
    <edge id=":3_1" function="internal">
        <lane id=":3_1_0" index="0" speed="13.90" length="13.19" shape="298.35,106.01 297.75,103.70 295.96,101.60 292.98,99.70 288.81,98.01"/>
    </edge>
    <edge id=":3_2" function="internal">
        <lane id=":3_2_0" index="0" speed="13.90" length="11.35" shape="298.35,106.01 298.75,102.66 299.95,100.26 301.95,98.83 304.75,98.35"/>
    </edge>
    <edge id=":3_3" function="internal">
        <lane id=":3_3_0" index="0" speed="13.90" length="4.82" shape="298.35,106.01 299.17,104.77 300.00,104.36 300.82,104.77 301.65,106.01"/>
    </edge>
    <edge id=":3_4" function="internal">
        <lane id=":3_4_0" index="0" speed="13.90" length="6.05" shape="304.75,101.65 303.39,101.92 302.42,102.74 301.84,104.10 301.65,106.01"/>
    </edge>
    <edge id=":3_5" function="internal">
        <lane id=":3_5_0" index="0" speed="13.90" length="15.36" shape="304.75,101.65 300.98,101.97 297.20,102.79 293.48,103.91 289.85,105.12"/>
    </edge>
    <edge id=":3_6" function="internal">
        <lane id=":3_6_0" index="0" speed="13.90" length="16.42" shape="304.75,101.65 300.82,101.30 296.68,100.42 292.59,99.24 288.81,98.01"/>
    </edge>
    <edge id=":3_7" function="internal">
        <lane id=":3_7_0" index="0" speed="13.90" length="2.61" shape="304.75,101.65 303.51,100.82 303.10,100.00 303.19,99.82"/>
    </edge>
    <edge id=":3_16" function="internal">
        <lane id=":3_16_0" index="0" speed="13.90" length="2.21" shape="303.19,99.82 303.51,99.17 304.75,98.35"/>
    </edge>
    <edge id=":3_8" function="internal">
        <lane id=":3_8_0" index="0" speed="13.90" length="15.36" shape="289.85,94.88 293.48,96.09 297.20,97.21 300.98,98.03 304.75,98.35"/>
    </edge>
    <edge id=":3_9" function="internal">
        <lane id=":3_9_0" index="0" speed="13.90" length="9.07" shape="289.85,94.88 295.01,97.05 297.85,99.04"/>
    </edge>
    <edge id=":3_10" function="internal">
        <lane id=":3_10_0" index="0" speed="13.90" length="7.92" shape="289.85,94.88 295.61,97.44 296.58,98.73"/>
    </edge>
    <edge id=":3_11" function="internal">
        <lane id=":3_11_0" index="0" speed="13.90" length="2.41" shape="289.85,94.88 290.76,96.05 290.89,96.96"/>
    </edge>
    <edge id=":3_17" function="internal">
        <lane id=":3_17_0" index="0" speed="13.90" length="8.22" shape="297.85,99.04 298.70,99.63 300.91,102.61 301.65,106.01"/>
    </edge>
    <edge id=":3_18" function="internal">
        <lane id=":3_18_0" index="0" speed="13.90" length="11.10" shape="296.58,98.73 297.53,100.00 295.61,102.56 289.85,105.12"/>
    </edge>
    <edge id=":3_19" function="internal">
        <lane id=":3_19_0" index="0" speed="13.90" length="2.41" shape="290.89,96.96 290.24,97.62 288.81,98.01"/>
    </edge>
    <edge id=":3_12" function="internal">
        <lane id=":3_12_0" index="0" speed="13.90" length="7.40" shape="288.81,101.99 291.05,101.00 291.79,100.00 291.05,99.00 288.81,98.01"/>
    </edge>
    <edge id=":3_13" function="internal">
        <lane id=":3_13_0" index="0" speed="13.90" length="16.42" shape="288.81,101.99 292.59,100.76 296.68,99.58 300.82,98.70 304.75,98.35"/>
    </edge>
    <edge id=":3_14" function="internal">
        <lane id=":3_14_0" index="0" speed="13.90" length="16.26" shape="288.81,101.99 294.42,100.64 298.44,100.86 300.85,102.65 301.65,106.01"/>
    </edge>
    <edge id=":3_15" function="internal">
        <lane id=":3_15_0" index="0" speed="13.90" length="4.82" shape="288.81,101.99 290.24,102.38 290.89,103.04 290.76,103.95 289.85,105.12"/>
    </edge>
    <edge id=":4_0" function="internal">
        <lane id=":4_0_0" index="0" speed="13.90" length="5.00" shape="398.35,104.75 398.16,103.39 397.58,102.43 396.61,101.84 395.25,101.65"/>
    </edge>
    <edge id=":4_1" function="internal">
        <lane id=":4_1_0" index="0" speed="13.90" length="9.50" shape="398.35,104.75 398.35,95.25"/>
    </edge>
    <edge id=":4_2" function="internal">
        <lane id=":4_2_0" index="0" speed="13.90" length="2.41" shape="398.35,104.75 399.17,103.51 400.00,103.10"/>
    </edge>
    <edge id=":4_9" function="internal">
        <lane id=":4_9_0" index="0" speed="13.90" length="2.41" shape="400.00,103.10 400.82,103.51 401.65,104.75"/>
    </edge>
    <edge id=":4_3" function="internal">
        <lane id=":4_3_0" index="0" speed="13.90" length="9.50" shape="401.65,95.25 401.65,104.75"/>
    </edge>
    <edge id=":4_4" function="internal">
        <lane id=":4_4_0" index="0" speed="13.90" length="5.28" shape="401.65,95.25 401.25,98.05 400.05,100.05 399.95,100.11"/>
    </edge>
    <edge id=":4_5" function="internal">
        <lane id=":4_5_0" index="0" speed="13.90" length="2.41" shape="401.65,95.25 400.83,96.49 400.00,96.90"/>
    </edge>
    <edge id=":4_10" function="internal">
        <lane id=":4_10_0" index="0" speed="13.90" length="5.04" shape="399.95,100.11 398.05,101.25 395.25,101.65"/>
    </edge>
    <edge id=":4_11" function="internal">
        <lane id=":4_11_0" index="0" speed="13.90" length="2.41" shape="400.00,96.90 399.18,96.49 398.35,95.25"/>
    </edge>
    <edge id=":4_6" function="internal">
        <lane id=":4_6_0" index="0" speed="13.90" length="5.00" shape="395.25,98.35 396.61,98.16 397.58,97.57 398.16,96.61 398.35,95.25"/>
    </edge>
    <edge id=":4_7" function="internal">
        <lane id=":4_7_0" index="0" speed="13.90" length="10.32" shape="395.25,98.35 398.05,98.75 400.05,99.95 401.25,101.95 401.65,104.75"/>
    </edge>
    <edge id=":4_8" function="internal">
        <lane id=":4_8_0" index="0" speed="13.90" length="4.82" shape="395.25,98.35 396.49,99.18 396.90,100.00 396.49,100.83 395.25,101.65"/>
    </edge>
    <edge id=":5_0" function="internal">
        <lane id=":5_0_0" index="0" speed="13.90" length="10.43" shape="298.35,209.35 297.87,206.92 296.45,205.92 294.07,206.33 290.74,208.16"/>
    </edge>
    <edge id=":5_1" function="internal">
        <lane id=":5_1_0" index="0" speed="13.90" length="14.81" shape="298.35,209.35 297.69,205.98 295.70,203.57 292.40,202.13 287.77,201.65"/>
    </edge>
    <edge id=":5_2" function="internal">
        <lane id=":5_2_0" index="0" speed="13.90" length="14.10" shape="298.35,209.35 298.35,195.25"/>
    </edge>
    <edge id=":5_3" function="internal">
        <lane id=":5_3_0" index="0" speed="13.90" length="6.83" shape="298.35,209.35 299.04,204.54 300.05,202.85"/>
    </edge>
    <edge id=":5_4" function="internal">
        <lane id=":5_4_0" index="0" speed="13.90" length="7.15" shape="298.35,209.35 298.94,204.10 300.05,202.60"/>
    </edge>
    <edge id=":5_5" function="internal">
        <lane id=":5_5_0" index="0" speed="13.90" length="2.41" shape="298.35,209.35 299.17,208.11 300.00,207.70"/>
    </edge>
    <edge id=":5_36" function="internal">
        <lane id=":5_36_0" index="0" speed="13.90" length="10.91" shape="300.05,202.85 301.10,201.10 304.54,199.04 309.35,198.35"/>
    </edge>
    <edge id=":5_37" function="internal">
        <lane id=":5_37_0" index="0" speed="13.90" length="9.36" shape="300.05,202.60 300.71,201.71 303.65,202.15 307.78,205.44"/>
    </edge>
    <edge id=":5_38" function="internal">
        <lane id=":5_38_0" index="0" speed="13.90" length="2.41" shape="300.00,207.70 300.82,208.11 301.65,209.35"/>
    </edge>
    <edge id=":5_6" function="internal">
        <lane id=":5_6_0" index="0" speed="13.90" length="6.64" shape="305.44,207.78 303.78,206.45 302.60,206.27 301.89,207.24 301.65,209.35"/>
    </edge>
    <edge id=":5_7" function="internal">
        <lane id=":5_7_0" index="0" speed="13.90" length="16.07" shape="305.44,207.78 302.40,205.68 298.94,205.05 295.05,205.87 290.74,208.16"/>
    </edge>
    <edge id=":5_8" function="internal">
        <lane id=":5_8_0" index="0" speed="13.90" length="19.18" shape="305.44,207.78 302.04,205.10 297.96,203.18 293.20,202.03 287.77,201.65"/>
    </edge>
    <edge id=":5_9" function="internal">
        <lane id=":5_9_0" index="0" speed="13.90" length="14.72" shape="305.44,207.78 302.34,204.33 300.12,201.10 298.79,198.07 298.35,195.25"/>
    </edge>
    <edge id=":5_10" function="internal">
        <lane id=":5_10_0" index="0" speed="13.90" length="16.51" shape="305.44,207.78 302.15,203.65 301.71,200.71 304.10,198.94 309.35,198.35"/>
    </edge>
    <edge id=":5_11" function="internal">
        <lane id=":5_11_0" index="0" speed="13.90" length="4.82" shape="305.44,207.78 305.15,206.32 305.44,205.44 306.32,205.15 307.78,205.44"/>
    </edge>
    <edge id=":5_12" function="internal">
        <lane id=":5_12_0" index="0" speed="13.90" length="6.64" shape="309.35,201.65 307.24,201.89 306.27,202.60 306.45,203.78 307.78,205.44"/>
    </edge>
    <edge id=":5_13" function="internal">
        <lane id=":5_13_0" index="0" speed="13.90" length="12.41" shape="309.35,201.65 305.98,202.13 303.57,203.57 302.13,205.98 301.65,209.35"/>
    </edge>
    <edge id=":5_14" function="internal">
        <lane id=":5_14_0" index="0" speed="13.90" length="19.88" shape="309.35,201.65 304.91,202.28 299.73,203.86 294.70,205.97 290.74,208.16"/>
    </edge>
    <edge id=":5_15" function="internal">
        <lane id=":5_15_0" index="0" speed="13.90" length="21.58" shape="309.35,201.65 287.77,201.65"/>
    </edge>
    <edge id=":5_16" function="internal">
        <lane id=":5_16_0" index="0" speed="13.90" length="14.22" shape="309.35,201.65 304.54,201.25 301.10,200.05 299.04,198.05 298.35,195.25"/>
    </edge>
    <edge id=":5_17" function="internal">
        <lane id=":5_17_0" index="0" speed="13.90" length="4.82" shape="309.35,201.65 308.11,200.83 307.70,200.00 308.11,199.18 309.35,198.35"/>
    </edge>
    <edge id=":5_18" function="internal">
        <lane id=":5_18_0" index="0" speed="13.90" length="9.02" shape="301.65,195.25 302.13,196.61 303.57,197.58 305.98,198.16 309.35,198.35"/>
    </edge>
    <edge id=":5_19" function="internal">
        <lane id=":5_19_0" index="0" speed="13.90" length="12.14" shape="301.65,195.25 302.03,197.41 303.18,199.83 305.10,202.51 307.78,205.44"/>
    </edge>
    <edge id=":5_20" function="internal">
        <lane id=":5_20_0" index="0" speed="13.90" length="14.10" shape="301.65,195.25 301.65,209.35"/>
    </edge>
    <edge id=":5_21" function="internal">
        <lane id=":5_21_0" index="0" speed="13.90" length="4.86" shape="301.65,195.25 300.97,198.17 299.95,199.72"/>
    </edge>
    <edge id=":5_22" function="internal">
        <lane id=":5_22_0" index="0" speed="13.90" length="3.98" shape="301.65,195.25 300.78,198.05 299.95,198.69"/>
    </edge>
    <edge id=":5_23" function="internal">
        <lane id=":5_23_0" index="0" speed="13.90" length="2.41" shape="301.65,195.25 300.83,196.49 300.00,196.90"/>
    </edge>
    <edge id=":5_39" function="internal">
        <lane id=":5_39_0" index="0" speed="13.90" length="12.59" shape="299.95,199.72 298.92,201.29 295.51,204.62 290.74,208.16"/>
    </edge>
    <edge id=":5_40" function="internal">
        <lane id=":5_40_0" index="0" speed="13.90" length="12.82" shape="299.95,198.69 298.18,200.05 293.84,201.25 287.77,201.65"/>
    </edge>
    <edge id=":5_41" function="internal">
        <lane id=":5_41_0" index="0" speed="13.90" length="2.41" shape="300.00,196.90 299.18,196.49 298.35,195.25"/>
    </edge>
    <edge id=":5_24" function="internal">
        <lane id=":5_24_0" index="0" speed="13.90" length="11.71" shape="287.77,198.35 292.40,198.16 295.70,197.57 297.69,196.61 298.35,195.25"/>
    </edge>
    <edge id=":5_25" function="internal">
        <lane id=":5_25_0" index="0" speed="13.90" length="21.58" shape="287.77,198.35 309.35,198.35"/>
    </edge>
    <edge id=":5_26" function="internal">
        <lane id=":5_26_0" index="0" speed="13.90" length="21.77" shape="287.77,198.35 293.86,198.79 299.23,200.12 303.87,202.34 307.78,205.44"/>
    </edge>
    <edge id=":5_27" function="internal">
        <lane id=":5_27_0" index="0" speed="13.90" length="20.12" shape="287.77,198.35 293.84,199.04 298.18,201.10 300.78,204.54 301.65,209.35"/>
    </edge>
    <edge id=":5_28" function="internal">
        <lane id=":5_28_0" index="0" speed="13.90" length="20.33" shape="287.77,198.35 294.58,198.96 297.35,200.80 296.07,203.87 290.74,208.16"/>
    </edge>
    <edge id=":5_29" function="internal">
        <lane id=":5_29_0" index="0" speed="13.90" length="4.82" shape="287.77,198.35 289.00,199.17 289.42,200.00 289.00,200.82 287.77,201.65"/>
    </edge>
    <edge id=":5_30" function="internal">
        <lane id=":5_30_0" index="0" speed="13.90" length="7.80" shape="288.91,205.41 290.95,203.77 291.44,202.59 290.38,201.89 287.77,201.65"/>
    </edge>
    <edge id=":5_31" function="internal">
        <lane id=":5_31_0" index="0" speed="13.90" length="14.24" shape="288.91,205.41 293.04,202.42 295.99,199.72 297.76,197.34 298.35,195.25"/>
    </edge>
    <edge id=":5_32" function="internal">
        <lane id=":5_32_0" index="0" speed="13.90" length="21.78" shape="288.91,205.41 293.15,203.14 298.81,200.84 304.63,199.06 309.35,198.35"/>
    </edge>
    <edge id=":5_33" function="internal">
        <lane id=":5_33_0" index="0" speed="13.90" length="20.65" shape="288.91,205.41 294.32,202.59 299.28,201.65 303.76,202.60 307.78,205.44"/>
    </edge>
    <edge id=":5_34" function="internal">
        <lane id=":5_34_0" index="0" speed="13.90" length="18.58" shape="288.91,205.41 294.48,202.47 298.46,202.15 300.85,204.44 301.65,209.35"/>
    </edge>
    <edge id=":5_35" function="internal">
        <lane id=":5_35_0" index="0" speed="13.90" length="4.82" shape="288.91,205.41 290.39,205.41 291.19,205.87 291.31,206.79 290.74,208.16"/>
    </edge>
    <edge id=":6_0" function="internal">
        <lane id=":6_0_0" index="0" speed="13.90" length="7.90" shape="401.65,196.75 401.34,198.89 400.42,200.42 398.89,201.34 396.75,201.65"/>
    </edge>
    <edge id=":6_1" function="internal">
        <lane id=":6_1_0" index="0" speed="13.90" length="2.80" shape="401.65,196.75 400.83,197.99 400.00,198.40 399.65,198.23"/>
    </edge>
    <edge id=":6_4" function="internal">
        <lane id=":6_4_0" index="0" speed="13.90" length="2.02" shape="399.65,198.23 399.18,197.99 398.35,196.75"/>
    </edge>
    <edge id=":6_2" function="internal">
        <lane id=":6_2_0" index="0" speed="13.90" length="2.58" shape="396.75,198.35 397.45,198.25 397.95,197.95 398.25,197.45 398.35,196.75"/>
    </edge>
    <edge id=":6_3" function="internal">
        <lane id=":6_3_0" index="0" speed="13.90" length="2.20" shape="396.75,198.35 397.99,199.17 398.31,199.81"/>
    </edge>
    <edge id=":6_5" function="internal">
        <lane id=":6_5_0" index="0" speed="13.90" length="2.62" shape="398.31,199.81 398.40,200.00 397.99,200.82 396.75,201.65"/>
    </edge>
    <edge id=":7_0" function="internal">
        <lane id=":7_0_0" index="0" speed="13.90" length="18.78" shape="12.23,401.65 6.16,401.07 1.82,399.34 -0.78,396.46 -1.65,392.43"/>
    </edge>
    <edge id=":7_1" function="internal">
        <lane id=":7_1_0" index="0" speed="13.90" length="11.47" shape="12.23,401.65 5.42,401.04 2.65,399.20 3.15,397.99"/>
    </edge>
    <edge id=":7_2" function="internal">
        <lane id=":7_2_0" index="0" speed="13.90" length="2.60" shape="12.23,401.65 11.00,400.83 10.58,400.00 10.67,399.83"/>
    </edge>
    <edge id=":7_9" function="internal">
        <lane id=":7_9_0" index="0" speed="13.90" length="8.86" shape="3.15,397.99 3.93,396.13 9.26,391.84"/>
    </edge>
    <edge id=":7_10" function="internal">
        <lane id=":7_10_0" index="0" speed="13.90" length="2.22" shape="10.67,399.83 11.00,399.18 12.23,398.35"/>
    </edge>
    <edge id=":7_3" function="internal">
        <lane id=":7_3_0" index="0" speed="13.90" length="7.80" shape="11.09,394.59 9.05,396.23 8.56,397.41 9.62,398.11 12.23,398.35"/>
    </edge>
    <edge id=":7_4" function="internal">
        <lane id=":7_4_0" index="0" speed="13.90" length="17.55" shape="11.09,394.59 5.52,397.64 1.54,398.30 -0.85,396.56 -1.65,392.43"/>
    </edge>
    <edge id=":7_5" function="internal">
        <lane id=":7_5_0" index="0" speed="13.90" length="4.82" shape="11.09,394.59 9.61,394.59 8.81,394.13 8.69,393.21 9.26,391.84"/>
    </edge>
    <edge id=":7_6" function="internal">
        <lane id=":7_6_0" index="0" speed="13.90" length="9.56" shape="1.65,392.43 2.13,394.07 3.55,394.53 5.93,393.78 9.26,391.84"/>
    </edge>
    <edge id=":7_7" function="internal">
        <lane id=":7_7_0" index="0" speed="13.90" length="13.52" shape="1.65,392.43 2.31,395.02 4.30,396.87 7.60,397.98 12.23,398.35"/>
    </edge>
    <edge id=":7_8" function="internal">
        <lane id=":7_8_0" index="0" speed="13.90" length="2.06" shape="1.65,392.43 0.83,393.66 0.31,393.92"/>
    </edge>
    <edge id=":7_11" function="internal">
        <lane id=":7_11_0" index="0" speed="13.90" length="2.75" shape="0.31,393.92 0.00,394.08 -0.83,393.66 -1.65,392.43"/>
    </edge>
    <edge id=":8_0" function="internal">
        <lane id=":8_0_0" index="0" speed="13.90" length="14.72" shape="307.78,394.56 304.33,397.66 301.10,399.88 298.07,401.21 295.25,401.65"/>
    </edge>
    <edge id=":8_1" function="internal">
        <lane id=":8_1_0" index="0" speed="13.90" length="8.37" shape="307.78,394.56 303.65,397.85 300.71,398.29 300.64,398.21"/>
    </edge>
    <edge id=":8_2" function="internal">
        <lane id=":8_2_0" index="0" speed="13.90" length="2.54" shape="307.78,394.56 306.32,394.85 305.44,394.56 305.40,394.43"/>
    </edge>
    <edge id=":8_9" function="internal">
        <lane id=":8_9_0" index="0" speed="13.90" length="8.14" shape="300.64,398.21 298.94,395.90 298.35,390.65"/>
    </edge>
    <edge id=":8_10" function="internal">
        <lane id=":8_10_0" index="0" speed="13.90" length="2.28" shape="305.40,394.43 305.15,393.68 305.44,392.22"/>
    </edge>
    <edge id=":8_3" function="internal">
        <lane id=":8_3_0" index="0" speed="13.90" length="6.64" shape="301.65,390.65 301.89,392.76 302.60,393.73 303.78,393.55 305.44,392.22"/>
    </edge>
    <edge id=":8_4" function="internal">
        <lane id=":8_4_0" index="0" speed="13.90" length="14.22" shape="301.65,390.65 301.25,395.46 300.05,398.90 298.05,400.96 295.25,401.65"/>
    </edge>
    <edge id=":8_5" function="internal">
        <lane id=":8_5_0" index="0" speed="13.90" length="4.82" shape="301.65,390.65 300.83,391.89 300.00,392.30 299.18,391.89 298.35,390.65"/>
    </edge>
    <edge id=":8_6" function="internal">
        <lane id=":8_6_0" index="0" speed="13.90" length="9.02" shape="295.25,398.35 296.61,397.87 297.58,396.43 298.16,394.02 298.35,390.65"/>
    </edge>
    <edge id=":8_7" function="internal">
        <lane id=":8_7_0" index="0" speed="13.90" length="12.14" shape="295.25,398.35 297.41,397.97 299.83,396.82 302.51,394.90 305.44,392.22"/>
    </edge>
    <edge id=":8_8" function="internal">
        <lane id=":8_8_0" index="0" speed="13.90" length="2.17" shape="295.25,398.35 296.49,399.17 296.79,399.79"/>
    </edge>
    <edge id=":8_11" function="internal">
        <lane id=":8_11_0" index="0" speed="13.90" length="2.65" shape="296.79,399.79 296.90,400.00 296.49,400.82 295.25,401.65"/>
    </edge>
    <edge id=":9_0" function="internal">
        <lane id=":9_0_0" index="0" speed="13.90" length="7.90" shape="398.87,296.54 400.17,298.27 400.60,300.00 400.17,301.73 398.87,303.46"/>
    </edge>
    <edge id=":9_1" function="internal">
        <lane id=":9_1_0" index="0" speed="13.90" length="2.80" shape="398.87,296.54 399.16,297.99 398.87,298.87 398.50,298.99"/>
    </edge>
    <edge id=":9_4" function="internal">
        <lane id=":9_4_0" index="0" speed="13.90" length="2.02" shape="398.50,298.99 397.99,299.16 396.54,298.87"/>
    </edge>
    <edge id=":9_2" function="internal">
        <lane id=":9_2_0" index="0" speed="13.90" length="2.58" shape="396.54,301.13 396.96,300.57 397.10,300.00 396.96,299.43 396.54,298.87"/>
    </edge>
    <edge id=":9_3" function="internal">
        <lane id=":9_3_0" index="0" speed="13.90" length="2.20" shape="396.54,301.13 397.99,300.84 398.67,301.06"/>
    </edge>
    <edge id=":9_5" function="internal">
        <lane id=":9_5_0" index="0" speed="13.90" length="2.62" shape="398.67,301.06 398.87,301.13 399.16,302.01 398.87,303.46"/>
    </edge>

    <edge id="0to1" from="0" to="1" priority="-1">
        <lane id="0to1_0" index="0" speed="13.90" length="375.22" shape="21.53,-1.65 396.75,-1.65"/>
    </edge>
    <edge id="0to2" from="0" to="2" priority="-1">
        <lane id="0to2_0" index="0" speed="13.90" length="187.98" shape="1.65,6.01 1.65,193.99"/>
    </edge>
    <edge id="0to3" from="0" to="3" priority="-1">
        <lane id="0to3_0" index="0" speed="13.90" length="283.45" shape="20.94,5.24 289.85,94.88"/>
    </edge>
    <edge id="1to0" from="1" to="0" priority="-1">
        <lane id="1to0_0" index="0" speed="13.90" length="375.22" shape="396.75,1.65 21.53,1.65"/>
    </edge>
    <edge id="1to4" from="1" to="4" priority="-1">
        <lane id="1to4_0" index="0" speed="13.90" length="92.00" shape="401.65,3.25 401.65,95.25"/>
    </edge>
    <edge id="2to0" from="2" to="0" priority="-1">
        <lane id="2to0_0" index="0" speed="13.90" length="187.98" shape="-1.65,193.99 -1.65,6.01"/>
    </edge>
    <edge id="2to3" from="2" to="3" priority="-1">
        <lane id="2to3_0" index="0" speed="13.90" length="283.45" shape="19.90,191.63 288.81,101.99"/>
    </edge>
    <edge id="2to5" from="2" to="5" priority="-1">
        <lane id="2to5_0" index="0" speed="13.90" length="266.24" shape="21.53,198.35 287.77,198.35"/>
    </edge>
    <edge id="2to7" from="2" to="7" priority="-1">
        <lane id="2to7_0" index="0" speed="13.90" length="187.68" shape="1.65,204.75 1.65,392.43"/>
    </edge>
    <edge id="3to0" from="3" to="0" priority="-1">
        <lane id="3to0_0" index="0" speed="13.90" length="283.45" shape="288.81,98.01 19.90,8.37"/>
    </edge>
    <edge id="3to2" from="3" to="2" priority="-1">
        <lane id="3to2_0" index="0" speed="13.90" length="283.45" shape="289.85,105.12 20.94,194.76"/>
    </edge>
    <edge id="3to4" from="3" to="4" priority="-1">
        <lane id="3to4_0" index="0" speed="13.90" length="90.50" shape="304.75,98.35 395.25,98.35"/>
    </edge>
    <edge id="3to5" from="3" to="5" priority="-1">