<nodes>
<node id= "0" x="0.0" y= "0.0" />
<node id= "1" x="400.0" y= "0.0" />
<node id= "2" x="0.0" y= "200.0" />
<node id= "3" x="300.0" y= "100.0" />
<node id= "4" x="400.0" y= "100.0" />
<node id= "5" x="300.0" y= "200.0" />
<node id= "6" x="400.0" y= "200.0" />
<node id= "7" x="0.0" y= "400.0" />
<node id= "8" x="300.0" y= "400.0" />
<node id= "9" x="400.0" y= "300.0" />
</nodes>
