<?xml version="1.0" encoding="UTF-8"?>

<!-- generated on Friday 15 February 2019 04:51:01 AM IST by Netedit Version 0.32.0
<?xml version="1.0" encoding="UTF-8"?>

<configuration xmlns:xsi="http://www.w3.org/2001/XMLSchema-instance" xsi:noNamespaceSchemaLocation="http://sumo.dlr.de/xsd/netconvertConfiguration.xsd">

    <input>
        <sumo-net-file value="/home/sumanth/Documents/SysCon/SUMO/sumo/tests/complex/tutorial/traci_tls/graph_data/ril.net.xml"/>
    </input>

    <output>
        <output-file value="/home/sumanth/Documents/SysCon/SUMO/sumo/tests/complex/tutorial/traci_tls/graph_data/ril.net.xml"/>
    </output>

    <processing>
        <no-turnarounds value="true"/>
        <offset.disable-normalization value="true"/>
        <lefthand value="false"/>
        <junctions.corner-detail value="0"/>
        <rectangular-lane-cut value="false"/>
        <walkingareas value="false"/>
    </processing>

</configuration>
-->

<net version="0.27" xmlns:xsi="http://www.w3.org/2001/XMLSchema-instance" xsi:noNamespaceSchemaLocation="http://sumo.dlr.de/xsd/net_file.xsd">

    <location netOffset="-290032.05,-2114622.43" convBoundary="451.29,984.66,1348.19,1456.91" origBoundary="73.003781,19.113996,73.021249,19.156699" projParameter="+proj=utm +zone=43 +ellps=WGS84 +datum=WGS84 +units=m +no_defs"/>

    <type id="highway.bridleway" priority="1" numLanes="1" speed="2.78" allow="pedestrian" oneway="1" width="2.00"/>
    <type id="highway.bus_guideway" priority="1" numLanes="1" speed="27.78" allow="bus" oneway="1"/>
    <type id="highway.cycleway" priority="1" numLanes="1" speed="8.33" allow="bicycle" oneway="0" width="1.00"/>
    <type id="highway.footway" priority="1" numLanes="1" speed="2.78" allow="pedestrian" oneway="1" width="2.00"/>
    <type id="highway.ford" priority="1" numLanes="1" speed="2.78" allow="army" oneway="0"/>
    <type id="highway.living_street" priority="3" numLanes="1" speed="2.78" disallow="tram rail_urban rail rail_electric ship" oneway="0"/>
    <type id="highway.motorway" priority="13" numLanes="2" speed="44.44" allow="private emergency authority army vip passenger hov taxi bus coach delivery truck trailer motorcycle evehicle custom1 custom2" oneway="1"/>
    <type id="highway.motorway_link" priority="12" numLanes="1" speed="22.22" allow="private emergency authority army vip passenger hov taxi bus coach delivery truck trailer motorcycle evehicle custom1 custom2" oneway="1"/>
    <type id="highway.path" priority="1" numLanes="1" speed="2.78" allow="bicycle pedestrian" oneway="1" width="2.00"/>
    <type id="highway.pedestrian" priority="1" numLanes="1" speed="2.78" allow="pedestrian" oneway="1" width="2.00"/>
    <type id="highway.primary" priority="9" numLanes="2" speed="27.78" disallow="tram rail_urban rail rail_electric ship" oneway="0"/>
    <type id="highway.primary_link" priority="8" numLanes="1" speed="22.22" disallow="tram rail_urban rail rail_electric ship" oneway="0"/>
    <type id="highway.raceway" priority="14" numLanes="2" speed="83.33" allow="vip" oneway="0"/>
    <type id="highway.residential" priority="4" numLanes="1" speed="13.89" disallow="tram rail_urban rail rail_electric ship" oneway="0"/>
    <type id="highway.secondary" priority="7" numLanes="2" speed="27.78" disallow="tram rail_urban rail rail_electric ship" oneway="0"/>
    <type id="highway.secondary_link" priority="6" numLanes="1" speed="22.22" disallow="tram rail_urban rail rail_electric ship" oneway="0"/>
    <type id="highway.service" priority="2" numLanes="1" speed="5.56" allow="delivery bicycle pedestrian" oneway="0"/>
    <type id="highway.services" priority="1" numLanes="1" speed="8.33" disallow="tram rail_urban rail rail_electric ship" oneway="0"/>
    <type id="highway.stairs" priority="1" numLanes="1" speed="1.39" allow="pedestrian" oneway="1" width="2.00"/>
    <type id="highway.step" priority="1" numLanes="1" speed="1.39" allow="pedestrian" oneway="1" width="2.00"/>
    <type id="highway.steps" priority="1" numLanes="1" speed="1.39" allow="pedestrian" oneway="1" width="2.00"/>
    <type id="highway.tertiary" priority="6" numLanes="1" speed="22.22" disallow="tram rail_urban rail rail_electric ship" oneway="0"/>
    <type id="highway.tertiary_link" priority="5" numLanes="1" speed="22.22" disallow="tram rail_urban rail rail_electric ship" oneway="0"/>
    <type id="highway.track" priority="1" numLanes="1" speed="5.56" disallow="tram rail_urban rail rail_electric ship" oneway="0"/>
    <type id="highway.trunk" priority="11" numLanes="2" speed="27.78" disallow="tram rail_urban rail rail_electric bicycle pedestrian ship" oneway="0"/>
    <type id="highway.trunk_link" priority="10" numLanes="1" speed="22.22" disallow="tram rail_urban rail rail_electric bicycle pedestrian ship" oneway="0"/>
    <type id="highway.unclassified" priority="5" numLanes="1" speed="13.89" disallow="tram rail_urban rail rail_electric ship" oneway="0"/>
    <type id="highway.unsurfaced" priority="1" numLanes="1" speed="8.33" disallow="tram rail_urban rail rail_electric ship" oneway="0"/>
    <type id="railway.light_rail" priority="15" numLanes="1" speed="27.78" allow="rail_urban" oneway="1"/>
    <type id="railway.preserved" priority="15" numLanes="1" speed="27.78" allow="rail" oneway="1"/>
    <type id="railway.rail" priority="15" numLanes="1" speed="83.33" allow="rail rail_electric" oneway="1"/>
    <type id="railway.subway" priority="15" numLanes="1" speed="27.78" allow="rail_urban" oneway="1"/>
    <type id="railway.tram" priority="15" numLanes="1" speed="13.89" allow="tram" oneway="1"/>

    <edge id=":0_0" function="internal">
        <lane id=":0_0_0" index="0" speed="13.89" length="9.53" shape="973.09,1449.08 963.56,1448.70"/>
    </edge>
    <edge id=":0_1" function="internal">
        <lane id=":0_1_0" index="0" speed="13.89" length="5.25" shape="973.09,1449.08 970.34,1448.58 968.39,1447.29 968.33,1447.19"/>
    </edge>
    <edge id=":0_6" function="internal">
        <lane id=":0_6_0" index="0" speed="13.89" length="5.09" shape="968.33,1447.19 967.24,1445.23 966.90,1442.40"/>
    </edge>
    <edge id=":0_2" function="internal">
        <lane id=":0_2_0" index="0" speed="13.89" length="5.09" shape="970.20,1442.46 970.36,1443.87 970.92,1444.90 971.87,1445.53 973.21,1445.78"/>
    </edge>
    <edge id=":0_3" function="internal">
        <lane id=":0_3_0" index="0" speed="13.89" length="10.45" shape="970.20,1442.46 969.74,1445.29 968.48,1447.28 966.42,1448.41 963.56,1448.70"/>
    </edge>
    <edge id=":0_4" function="internal">
        <lane id=":0_4_0" index="0" speed="13.89" length="5.03" shape="963.70,1445.40 965.08,1445.27 966.07,1444.72 966.68,1443.76 966.90,1442.40"/>
    </edge>
    <edge id=":0_5" function="internal">
        <lane id=":0_5_0" index="0" speed="13.89" length="9.51" shape="963.70,1445.40 973.21,1445.78"/>
    </edge>
    <edge id=":1_0" function="internal">
        <lane id=":1_0_0" index="0" speed="13.89" length="22.80" shape="608.00,993.78 609.18,990.24 612.78,987.71 618.80,986.17 627.25,985.63"/>
    </edge>
    <edge id=":1_1" function="internal">
        <lane id=":1_1_0" index="0" disallow="tram rail_urban rail rail_electric ship" speed="13.89" length="21.77" shape="608.00,993.78 609.13,990.36 612.60,989.03 618.40,989.77 626.54,992.59"/>
    </edge>
    <edge id=":1_2" function="internal">
        <lane id=":1_2_0" index="0" disallow="tram rail_urban rail rail_electric ship" speed="13.89" length="15.26" shape="625.27,995.64 619.15,993.34 614.78,992.26 612.16,992.40 611.30,993.75"/>
    </edge>
    <edge id=":1_3" function="internal">
        <lane id=":1_3_0" index="0" speed="13.89" length="10.08" shape="625.27,995.64 616.44,991.30 616.28,991.11"/>
    </edge>
    <edge id=":1_6" function="internal">
        <lane id=":1_6_0" index="0" speed="13.89" length="17.73" shape="616.28,991.11 613.83,988.18 617.43,986.30 627.25,985.63"/>
    </edge>
    <edge id=":1_4" function="internal">
        <lane id=":1_4_0" index="0" disallow="tram rail_urban rail rail_electric ship" speed="13.89" length="10.17" shape="627.26,988.93 623.67,989.18 622.35,989.87 623.31,991.00 626.54,992.59"/>
    </edge>
    <edge id=":1_5" function="internal">
        <lane id=":1_5_0" index="0" disallow="tram rail_urban rail rail_electric ship" speed="13.89" length="17.72" shape="627.26,988.93 620.26,989.26 615.27,990.17 612.29,991.66 611.30,993.75"/>
    </edge>
    <edge id=":10_0" function="internal">
        <lane id=":10_0_0" index="0" disallow="tram rail_urban rail rail_electric ship" speed="13.89" length="0.50" shape="1347.22,1192.54 1347.19,1192.39 1347.17,1192.29 1347.13,1192.20 1347.07,1192.06"/>
    </edge>
    <edge id=":11_0" function="internal">
        <lane id=":11_0_0" index="0" speed="13.89" length="5.08" shape="975.03,1193.88 975.11,1195.28 975.62,1196.29 976.57,1196.91 977.96,1197.15"/>
    </edge>
    <edge id=":11_1" function="internal">
        <lane id=":11_1_0" index="0" speed="13.89" length="19.48" shape="975.03,1193.88 974.34,1213.34"/>
    </edge>
    <edge id=":11_2" function="internal">
        <lane id=":11_2_0" index="0" disallow="tram rail_urban rail rail_electric ship" speed="13.89" length="20.05" shape="975.03,1193.88 973.98,1198.24 971.92,1203.31 969.50,1208.27 967.34,1212.30"/>
    </edge>
    <edge id=":11_3" function="internal">
        <lane id=":11_3_0" index="0" speed="13.89" length="5.57" shape="967.98,1196.74 969.51,1196.62 970.66,1196.05 971.40,1195.04 971.75,1193.58"/>
    </edge>
    <edge id=":11_4" function="internal">
        <lane id=":11_4_0" index="0" speed="13.89" length="9.99" shape="967.98,1196.74 977.96,1197.15"/>
    </edge>
    <edge id=":11_5" function="internal">
        <lane id=":11_5_0" index="0" speed="13.89" length="19.27" shape="967.98,1196.74 970.87,1197.92 972.89,1201.08 974.05,1206.22 974.34,1213.34"/>
    </edge>
    <edge id=":11_6" function="internal">
        <lane id=":11_6_0" index="0" disallow="tram rail_urban rail rail_electric ship" speed="13.89" length="18.45" shape="967.98,1196.74 970.82,1197.88 971.66,1200.85 970.50,1205.66 967.34,1212.30"/>
    </edge>
    <edge id=":11_7" function="internal">
        <lane id=":11_7_0" index="0" speed="13.89" length="18.71" shape="964.45,1210.71 966.54,1206.88 968.83,1202.37 970.76,1197.74 971.75,1193.58"/>
    </edge>
    <edge id=":11_8" function="internal">
        <lane id=":11_8_0" index="0" speed="13.89" length="11.75" shape="964.45,1210.71 968.12,1204.72 971.11,1201.06"/>
    </edge>
    <edge id=":11_9" function="internal">
        <lane id=":11_9_0" index="0" speed="13.89" length="9.71" shape="964.45,1210.71 968.92,1203.87 970.25,1203.09"/>
    </edge>
    <edge id=":11_10" function="internal">
        <lane id=":11_10_0" index="0" disallow="tram rail_urban rail rail_electric ship" speed="13.89" length="2.41" shape="964.45,1210.71 965.77,1210.02 966.69,1210.06"/>
    </edge>
    <edge id=":11_14" function="internal">
        <lane id=":11_14_0" index="0" speed="13.89" length="8.08" shape="971.11,1201.06 971.59,1200.47 974.87,1197.94 977.96,1197.15"/>
    </edge>
    <edge id=":11_15" function="internal">
        <lane id=":11_15_0" index="0" speed="13.89" length="13.90" shape="970.25,1203.09 972.06,1202.03 973.86,1205.19 974.34,1213.34"/>
    </edge>
    <edge id=":11_16" function="internal">
        <lane id=":11_16_0" index="0" speed="13.89" length="2.41" shape="966.69,1210.06 967.21,1210.81 967.34,1212.30"/>
    </edge>
    <edge id=":11_11" function="internal">
        <lane id=":11_11_0" index="0" disallow="tram rail_urban rail rail_electric ship" speed="13.89" length="8.83" shape="971.04,1213.28 970.86,1210.23 970.18,1209.05 969.01,1209.74 967.34,1212.30"/>
    </edge>
    <edge id=":11_12" function="internal">
        <lane id=":11_12_0" index="0" speed="13.89" length="19.71" shape="971.04,1213.28 971.75,1193.58"/>
    </edge>
    <edge id=":11_13" function="internal">
        <lane id=":11_13_0" index="0" speed="13.89" length="19.12" shape="971.04,1213.28 971.58,1206.17 972.91,1201.10 975.04,1198.10 977.96,1197.15"/>
    </edge>
    <edge id=":12_0" function="internal">
        <lane id=":12_0_0" index="0" speed="11.11" length="5.34" shape="979.65,1177.78 978.24,1177.94 977.20,1178.52 976.51,1179.54 976.18,1180.99"/>
    </edge>
    <edge id=":12_1" function="internal">
        <lane id=":12_1_0" index="0" disallow="tram rail_urban rail rail_electric ship" speed="8.33" length="9.67" shape="979.65,1177.78 969.99,1177.41"/>
    </edge>
    <edge id=":12_2" function="internal">
        <lane id=":12_2_0" index="0" disallow="tram rail_urban rail rail_electric ship" speed="8.33" length="7.87" shape="979.65,1177.78 976.87,1177.48 974.89,1176.82 973.72,1175.80 973.36,1174.42"/>
    </edge>
    <edge id=":12_3" function="internal">
        <lane id=":12_3_0" index="0" speed="11.11" length="6.51" shape="976.66,1174.50 976.18,1180.99"/>
    </edge>
    <edge id=":12_4" function="internal">
        <lane id=":12_4_0" index="0" disallow="tram rail_urban rail rail_electric ship" speed="8.33" length="1.16" shape="976.66,1174.50 976.30,1175.60"/>
    </edge>
    <edge id=":12_5" function="internal">
        <lane id=":12_5_0" index="0" disallow="tram rail_urban rail rail_electric ship" speed="8.33" length="1.21" shape="976.66,1174.50 975.96,1175.49"/>
    </edge>
    <edge id=":12_8" function="internal">
        <lane id=":12_8_0" index="0" speed="8.33" length="6.88" shape="976.30,1175.60 976.21,1175.87 974.95,1176.81 972.88,1177.32 969.99,1177.41"/>
    </edge>
    <edge id=":12_9" function="internal">
        <lane id=":12_9_0" index="0" speed="8.33" length="3.61" shape="975.96,1175.49 975.80,1175.72 974.97,1176.11 974.15,1175.67 973.36,1174.42"/>
    </edge>
    <edge id=":12_6" function="internal">
        <lane id=":12_6_0" index="0" disallow="tram rail_urban rail rail_electric ship" speed="11.11" length="5.06" shape="972.89,1180.70 972.82,1179.31 972.31,1178.29 971.37,1177.66 969.99,1177.41"/>
    </edge>
    <edge id=":12_7" function="internal">
        <lane id=":12_7_0" index="0" disallow="tram rail_urban rail rail_electric ship" speed="11.11" length="6.30" shape="972.89,1180.70 973.36,1174.42"/>
    </edge>
    <edge id=":13_0" function="internal">
        <lane id=":13_0_0" index="0" speed="13.89" length="0.29" shape="1181.86,1201.94 1182.15,1201.95"/>
    </edge>
    <edge id=":14_0" function="internal">
        <lane id=":14_0_0" index="0" disallow="tram rail_urban rail rail_electric ship" speed="8.33" length="9.50" shape="895.44,1174.51 885.95,1174.14"/>
    </edge>
    <edge id=":14_1" function="internal">
        <lane id=":14_1_0" index="0" disallow="tram rail_urban rail rail_electric ship" speed="11.11" length="7.86" shape="895.44,1174.51 892.66,1174.21 890.68,1173.55 889.51,1172.53 889.16,1171.15"/>
    </edge>
    <edge id=":14_2" function="internal">
        <lane id=":14_2_0" index="0" disallow="tram rail_urban rail rail_electric ship" speed="11.11" length="7.87" shape="892.45,1171.26 892.01,1172.61 890.78,1173.55 888.76,1174.06 885.95,1174.14"/>
    </edge>
    <edge id=":14_3" function="internal">
        <lane id=":14_3_0" index="0" disallow="tram rail_urban rail rail_electric ship" speed="13.89" length="4.82" shape="892.45,1171.26 891.59,1172.47 890.75,1172.85 889.94,1172.42 889.16,1171.15"/>
    </edge>
    <edge id=":15_0" function="internal">
        <lane id=":15_0_0" index="0" disallow="tram rail_urban rail rail_electric ship" speed="11.11" length="5.17" shape="1180.20,1188.88 1180.01,1187.43 1179.44,1186.38 1178.49,1185.73 1177.17,1185.47"/>
    </edge>
    <edge id=":15_1" function="internal">
        <lane id=":15_1_0" index="0" speed="13.89" length="5.05" shape="1186.66,1185.84 1185.28,1185.98 1184.29,1186.54 1183.70,1187.50 1183.50,1188.88"/>
    </edge>
    <edge id=":15_2" function="internal">
        <lane id=":15_2_0" index="0" disallow="tram rail_urban rail rail_electric ship" speed="11.11" length="9.51" shape="1186.66,1185.84 1177.17,1185.47"/>
    </edge>
    <edge id=":16_0" function="internal">
        <lane id=":16_0_0" index="0" speed="13.89" length="10.65" shape="1314.38,1184.33 1312.38,1186.45 1311.75,1188.51 1311.66,1190.91 1311.24,1194.06"/>
    </edge>
    <edge id=":16_1" function="internal">
        <lane id=":16_1_0" index="0" speed="13.89" length="10.01" shape="1314.38,1184.33 1312.33,1186.54 1311.15,1188.58 1309.78,1190.04 1307.19,1190.52"/>
    </edge>
    <edge id=":17_0" function="internal">
        <lane id=":17_0_0" index="0" disallow="tram rail_urban rail rail_electric ship" speed="13.89" length="23.60" shape="866.76,1095.85 844.96,1086.80"/>
    </edge>
    <edge id=":17_1" function="internal">
        <lane id=":17_1_0" index="0" disallow="tram rail_urban rail rail_electric ship" speed="11.11" length="14.70" shape="866.76,1095.85 855.90,1090.66 854.05,1088.73"/>
    </edge>
    <edge id=":17_2" function="internal">
        <lane id=":17_2_0" index="0" disallow="tram rail_urban rail rail_electric ship" speed="13.89" length="2.41" shape="866.76,1095.85 865.93,1094.61 865.86,1093.69"/>
    </edge>
    <edge id=":17_9" function="internal">
        <lane id=":17_9_0" index="0" speed="11.11" length="18.70" shape="854.05,1088.73 852.67,1087.29 857.07,1085.72 869.10,1085.97"/>
    </edge>
    <edge id=":17_10" function="internal">
        <lane id=":17_10_0" index="0" speed="13.89" length="2.41" shape="865.86,1093.69 866.56,1093.09 868.02,1092.80"/>
    </edge>
    <edge id=":17_3" function="internal">
        <lane id=":17_3_0" index="0" disallow="tram rail_urban rail rail_electric ship" speed="11.11" length="11.97" shape="868.86,1089.26 864.55,1089.17 862.97,1089.73 864.13,1090.94 868.02,1092.80"/>
    </edge>
    <edge id=":17_4" function="internal">
        <lane id=":17_4_0" index="0" disallow="tram rail_urban rail rail_electric ship" speed="11.11" length="24.08" shape="868.86,1089.26 863.67,1088.99 856.77,1088.61 849.94,1087.94 844.96,1086.80"/>
    </edge>
    <edge id=":17_5" function="internal">
        <lane id=":17_5_0" index="0" disallow="tram rail_urban rail rail_electric ship" speed="8.33" length="4.82" shape="868.86,1089.26 867.69,1088.35 867.33,1087.49 867.81,1086.70 869.10,1085.97"/>
    </edge>
    <edge id=":17_6" function="internal">
        <lane id=":17_6_0" index="0" disallow="tram rail_urban rail rail_electric ship" speed="11.11" length="23.04" shape="846.22,1083.75 851.04,1084.85 857.52,1085.44 864.07,1085.74 869.10,1085.97"/>
    </edge>
    <edge id=":17_7" function="internal">
        <lane id=":17_7_0" index="0" disallow="tram rail_urban rail rail_electric ship" speed="13.89" length="23.60" shape="846.22,1083.75 868.02,1092.80"/>
    </edge>
    <edge id=":17_8" function="internal">
        <lane id=":17_8_0" index="0" disallow="tram rail_urban rail rail_electric ship" speed="13.89" length="2.41" shape="846.22,1083.75 847.05,1084.99 847.11,1085.91"/>
    </edge>
    <edge id=":17_11" function="internal">
        <lane id=":17_11_0" index="0" speed="13.89" length="2.41" shape="847.11,1085.91 846.42,1086.51 844.96,1086.80"/>
    </edge>
    <edge id=":18_0" function="internal">
        <lane id=":18_0_0" index="0" speed="13.89" length="9.63" shape="1186.81,1456.80 1177.19,1456.57"/>
    </edge>
    <edge id=":18_1" function="internal">
        <lane id=":18_1_0" index="0" speed="13.89" length="5.31" shape="1186.81,1456.80 1184.04,1456.36 1182.06,1455.12 1181.97,1454.98"/>
    </edge>
    <edge id=":18_6" function="internal">
        <lane id=":18_6_0" index="0" speed="13.89" length="5.09" shape="1181.97,1454.98 1180.86,1453.08 1180.47,1450.23"/>
    </edge>
    <edge id=":18_2" function="internal">
        <lane id=":18_2_0" index="0" speed="13.89" length="5.12" shape="1183.77,1450.22 1183.96,1451.65 1184.54,1452.67 1185.50,1453.28 1186.85,1453.50"/>
    </edge>
    <edge id=":18_3" function="internal">
        <lane id=":18_3_0" index="0" speed="13.89" length="10.51" shape="1183.77,1450.22 1183.36,1453.09 1182.12,1455.10 1180.07,1456.26 1177.19,1456.57"/>
    </edge>
    <edge id=":18_4" function="internal">
        <lane id=":18_4_0" index="0" speed="13.89" length="5.05" shape="1177.31,1453.27 1178.69,1453.13 1179.68,1452.57 1180.27,1451.60 1180.47,1450.23"/>
    </edge>
    <edge id=":18_5" function="internal">
        <lane id=":18_5_0" index="0" speed="13.89" length="9.54" shape="1177.31,1453.27 1186.85,1453.50"/>
    </edge>
    <edge id=":19_0" function="internal">
        <lane id=":19_0_0" index="0" disallow="tram rail_urban rail rail_electric ship" speed="13.89" length="7.87" shape="459.88,1369.36 457.76,1368.99 456.26,1368.03 455.38,1366.48 455.13,1364.34"/>
    </edge>
    <edge id=":19_1" function="internal">
        <lane id=":19_1_0" index="0" disallow="tram rail_urban rail rail_electric ship" speed="13.89" length="2.80" shape="459.88,1369.36 458.67,1368.50 458.28,1367.66 458.47,1367.31"/>
    </edge>
    <edge id=":19_4" function="internal">
        <lane id=":19_4_0" index="0" speed="13.89" length="2.02" shape="458.47,1367.31 458.72,1366.85 459.98,1366.06"/>
    </edge>
    <edge id=":19_2" function="internal">
        <lane id=":19_2_0" index="0" disallow="tram rail_urban rail rail_electric ship" speed="13.89" length="2.57" shape="458.43,1364.42 458.51,1365.12 458.80,1365.62 459.29,1365.94 459.98,1366.06"/>
    </edge>
    <edge id=":19_3" function="internal">
        <lane id=":19_3_0" index="0" disallow="tram rail_urban rail rail_electric ship" speed="13.89" length="2.20" shape="458.43,1364.42 457.58,1365.64 456.93,1365.94"/>
    </edge>
    <edge id=":19_5" function="internal">
        <lane id=":19_5_0" index="0" speed="13.89" length="2.62" shape="456.93,1365.94 456.74,1366.03 455.93,1365.59 455.13,1364.34"/>
    </edge>
    <edge id=":2_0" function="internal">
        <lane id=":2_0_0" index="0" speed="13.89" length="7.74" shape="873.31,1444.78 871.23,1444.39 869.75,1443.43 868.88,1441.90 868.62,1439.80"/>
    </edge>
    <edge id=":2_1" function="internal">
        <lane id=":2_1_0" index="0" speed="13.89" length="2.53" shape="871.92,1439.86 872.01,1440.54 872.29,1441.04 872.77,1441.35 873.45,1441.48"/>
    </edge>
    <edge id=":20_0" function="internal">
        <lane id=":20_0_0" index="0" disallow="tram rail_urban rail rail_electric ship" speed="13.89" length="8.95" shape="674.05,1376.38 671.42,1376.00 669.62,1375.79 667.80,1375.68 665.15,1375.59"/>
    </edge>
    <edge id=":20_1" function="internal">
        <lane id=":20_1_0" index="0" disallow="tram rail_urban rail rail_electric ship" speed="13.89" length="10.13" shape="674.05,1376.38 671.40,1375.60 669.60,1374.16 668.65,1372.06 668.56,1369.30"/>
    </edge>
    <edge id=":20_2" function="internal">
        <lane id=":20_2_0" index="0" speed="13.89" length="4.95" shape="671.84,1369.65 671.89,1371.00 672.35,1372.03 673.23,1372.73 674.53,1373.11"/>
    </edge>
    <edge id=":20_3" function="internal">
        <lane id=":20_3_0" index="0" disallow="tram rail_urban rail rail_electric ship" speed="13.89" length="10.04" shape="671.84,1369.65 671.18,1372.32 669.84,1374.20 667.83,1375.29 665.15,1375.59"/>
    </edge>
    <edge id=":20_4" function="internal">
        <lane id=":20_4_0" index="0" disallow="tram rail_urban rail rail_electric ship" speed="13.89" length="5.00" shape="665.25,1372.29 666.57,1372.14 667.57,1371.59 668.23,1370.65 668.56,1369.30"/>
    </edge>
    <edge id=":20_5" function="internal">
        <lane id=":20_5_0" index="0" speed="13.89" length="9.32" shape="665.25,1372.29 668.01,1372.39 669.90,1372.50 671.79,1372.72 674.53,1373.11"/>
    </edge>
    <edge id=":21_0" function="internal">
        <lane id=":21_0_0" index="0" speed="13.89" length="0.70" shape="1310.38,1197.75 1310.34,1197.96 1310.32,1198.10 1310.33,1198.24 1310.37,1198.45"/>
    </edge>
    <edge id=":22_0" function="internal">
        <lane id=":22_0_0" index="0" disallow="tram rail_urban rail rail_electric ship" speed="13.89" length="10.53" shape="1311.32,1202.94 1311.65,1206.08 1311.67,1208.46 1312.24,1210.49 1314.22,1212.59"/>
    </edge>
    <edge id=":22_1" function="internal">
        <lane id=":22_1_0" index="0" disallow="tram rail_urban rail rail_electric ship" speed="13.89" length="3.13" shape="1307.17,1206.24 1309.74,1206.89 1310.06,1207.25"/>
    </edge>
    <edge id=":22_2" function="internal">
        <lane id=":22_2_0" index="0" speed="13.89" length="6.81" shape="1310.06,1207.25 1311.06,1208.39 1312.20,1210.40 1314.22,1212.59"/>
    </edge>
    <edge id=":23_0" function="internal">
        <lane id=":23_0_0" index="0" speed="13.89" length="8.04" shape="1324.01,983.02 1326.20,983.33 1327.74,984.26 1328.65,985.83 1328.92,988.02"/>
    </edge>
    <edge id=":23_1" function="internal">
        <lane id=":23_1_0" index="0" speed="13.89" length="2.62" shape="1325.63,987.95 1325.54,987.24 1325.24,986.73 1324.73,986.42 1324.02,986.32"/>
    </edge>
    <edge id=":24_0" function="internal">
        <lane id=":24_0_0" index="0" disallow="tram rail_urban rail rail_electric ship" speed="13.89" length="6.53" shape="876.71,1260.62 874.57,1260.62 872.90,1260.98 871.70,1261.69 870.96,1262.75"/>
    </edge>
    <edge id=":24_1" function="internal">
        <lane id=":24_1_0" index="0" disallow="tram rail_urban rail rail_electric ship" speed="13.89" length="11.08" shape="876.71,1260.62 874.27,1259.95 872.55,1258.34 871.56,1255.81 871.30,1252.33"/>
    </edge>
    <edge id=":24_2" function="internal">
        <lane id=":24_2_0" index="0" disallow="tram rail_urban rail rail_electric ship" speed="13.89" length="4.82" shape="876.71,1260.62 875.53,1259.71 875.18,1258.85 875.65,1258.06 876.95,1257.33"/>
    </edge>
    <edge id=":24_3" function="internal">
        <lane id=":24_3_0" index="0" disallow="tram rail_urban rail rail_electric ship" speed="13.89" length="4.93" shape="874.57,1253.62 874.68,1255.17 875.12,1256.31 875.87,1257.03 876.95,1257.33"/>
    </edge>
    <edge id=":24_4" function="internal">
        <lane id=":24_4_0" index="0" disallow="tram rail_urban rail rail_electric ship" speed="13.89" length="9.95" shape="874.57,1253.62 874.21,1256.47 873.41,1258.32 872.28,1260.09 870.96,1262.75"/>
    </edge>
    <edge id=":24_5" function="internal">
        <lane id=":24_5_0" index="0" disallow="tram rail_urban rail rail_electric ship" speed="13.89" length="2.20" shape="874.57,1253.62 873.27,1254.52 872.65,1254.58"/>
    </edge>
    <edge id=":24_9" function="internal">
        <lane id=":24_9_0" index="0" speed="13.89" length="2.93" shape="872.65,1254.58 872.29,1254.61 871.63,1253.88 871.30,1252.33"/>
    </edge>
    <edge id=":24_6" function="internal">
        <lane id=":24_6_0" index="0" disallow="tram rail_urban rail rail_electric ship" speed="13.89" length="9.92" shape="867.90,1261.51 869.19,1258.85 870.24,1257.06 870.97,1255.19 871.30,1252.33"/>
    </edge>
    <edge id=":24_7" function="internal">
        <lane id=":24_7_0" index="0" disallow="tram rail_urban rail rail_electric ship" speed="13.89" length="5.43" shape="867.90,1261.51 869.18,1259.49 871.11,1258.11 871.75,1257.93"/>
    </edge>
    <edge id=":24_8" function="internal">
        <lane id=":24_8_0" index="0" disallow="tram rail_urban rail rail_electric ship" speed="13.89" length="2.60" shape="867.90,1261.51 869.13,1260.67 870.05,1260.60 870.17,1260.74"/>
    </edge>
    <edge id=":24_10" function="internal">
        <lane id=":24_10_0" index="0" speed="13.89" length="5.27" shape="871.75,1257.93 873.70,1257.39 876.95,1257.33"/>
    </edge>
    <edge id=":24_11" function="internal">
        <lane id=":24_11_0" index="0" speed="13.89" length="2.22" shape="870.17,1260.74 870.66,1261.29 870.96,1262.75"/>
    </edge>
    <edge id=":25_0" function="internal">
        <lane id=":25_0_0" index="0" disallow="tram rail_urban rail rail_electric ship" speed="13.89" length="6.93" shape="1321.77,1217.11 1323.69,1217.79 1325.07,1218.05 1326.49,1218.12 1328.55,1218.26"/>
    </edge>
    <edge id=":25_1" function="internal">
        <lane id=":25_1_0" index="0" disallow="tram rail_urban rail rail_electric ship" speed="11.11" length="5.98" shape="1321.77,1217.11 1323.26,1217.89 1324.38,1218.86 1325.13,1220.04 1325.51,1221.41"/>
    </edge>
    <edge id=":26_0" function="internal">
        <lane id=":26_0_0" index="0" speed="13.89" length="6.17" shape="1324.30,1458.33 1318.13,1458.23"/>
    </edge>
    <edge id=":26_1" function="internal">
        <lane id=":26_1_0" index="0" speed="11.11" length="5.01" shape="1321.32,1451.87 1321.48,1453.23 1322.04,1454.21 1323.00,1454.81 1324.35,1455.03"/>
    </edge>
    <edge id=":26_2" function="internal">
        <lane id=":26_2_0" index="0" speed="11.11" length="7.83" shape="1321.32,1451.87 1321.06,1454.66 1320.44,1456.66 1319.46,1457.85 1318.13,1458.23"/>
    </edge>
    <edge id=":26_3" function="internal">
        <lane id=":26_3_0" index="0" speed="13.89" length="6.19" shape="1318.16,1454.93 1324.35,1455.03"/>
    </edge>
    <edge id=":27_0" function="internal">
        <lane id=":27_0_0" index="0" disallow="tram rail_urban rail rail_electric ship" speed="11.11" length="4.98" shape="1334.97,1455.21 1336.32,1455.04 1337.30,1454.48 1337.91,1453.53 1338.15,1452.19"/>
    </edge>
    <edge id=":28_0" function="internal">
        <lane id=":28_0_0" index="0" speed="13.89" length="7.19" shape="868.25,1401.13 870.11,1401.67 871.43,1402.67 872.21,1404.13 872.45,1406.05"/>
    </edge>
    <edge id=":28_1" function="internal">
        <lane id=":28_1_0" index="0" speed="13.89" length="2.35" shape="869.15,1406.00 869.07,1405.37 868.81,1404.90 868.38,1404.57 867.77,1404.39"/>
    </edge>
    <edge id=":29_0" function="internal">
        <lane id=":29_0_0" index="0" disallow="tram rail_urban rail rail_electric ship" speed="13.89" length="9.26" shape="1328.45,1178.81 1325.72,1179.06 1323.85,1179.35 1322.04,1179.87 1319.48,1180.85"/>
    </edge>
    <edge id=":29_1" function="internal">