<?xml version="1.0" encoding="UTF-8"?>

<!-- generated on Tue Feb 12 20:34:09 2019 by SUMO polyconvert Version 0.32.0
<?xml version="1.0" encoding="UTF-8"?>

<configuration xmlns:xsi="http://www.w3.org/2001/XMLSchema-instance" xsi:noNamespaceSchemaLocation="http://sumo.dlr.de/xsd/polyconvertConfiguration.xsd">

    <input>
        <net-file value="ril.net.xml"/>
        <osm-files value="map.osm"/>
        <type-file value="typemap.xml"/>
    </input>

    <output>
        <output-file value="ril.poly.xml"/>
    </output>

    <processing>
        <poi-layer-offset value="5"/>
    </processing>

</configuration>
-->

<additional xmlns:xsi="http://www.w3.org/2001/XMLSchema-instance" xsi:noNamespaceSchemaLocation="http://sumo.dlr.de/xsd/additional_file.xsd">
    <location netOffset="-290032.05,-2114622.43" convBoundary="-884.32,-83.57,3408.03,10164.13" origBoundary="72.994958,19.113385,73.036154,19.205791" projParameter="+proj=utm +zone=43 +ellps=WGS84 +datum=WGS84 +units=m +no_defs"/>

    <poly id="122595273" type="commercial" color="209,209,204" fill="1" layer="-11.00" shape="101.65,2390.79 83.01,2298.63 64.70,2221.43 49.72,2124.11 30.30,1934.02 34.40,1747.13 102.32,1426.06 193.09,974.87 256.42,763.65 1287.56,1179.96 1298.27,788.00 1339.78,544.96 1346.32,533.06 1379.57,536.98 1385.52,555.84 1395.97,572.38 1636.27,908.83 1760.92,937.06 1825.03,989.31 1836.67,1045.31 1818.95,1112.91 1755.19,1166.66 1597.90,1226.55 1471.52,1350.66 1461.41,1386.79 1462.18,1561.71 1384.64,1704.55 1372.12,1783.52 1366.21,1873.23 1371.80,2038.02 1330.64,2038.36 1330.50,2319.09 1285.59,2417.51 840.72,2414.15 101.65,2390.79"/>
    <poly id="122595297" type="unknown" color="51,128,255" fill="0" layer="-1.00" shape="744.32,1901.93 844.19,1806.99 944.24,1711.87"/>
    <poly id="214718222" type="unknown" color="51,128,255" fill="0" layer="-1.00" shape="322.27,1427.33 317.98,1534.80 316.34,1575.77 310.24,1728.56 305.88,1837.87 300.59,1970.63"/>
    <poly id="214718312" type="unknown" color="51,128,255" fill="0" layer="-1.00" shape="392.34,2308.79 526.90,2314.32"/>
    <poly id="214718314" type="unknown" color="51,128,255" fill="0" layer="-1.00" shape="138.13,2373.13 140.14,2304.12 141.72,2249.95 145.45,2122.65 153.83,1994.14 155.65,1966.02 159.80,1832.33 163.17,1723.51 167.86,1571.88 172.50,1421.99"/>
    <poly id="214718315" type="unknown" color="51,128,255" fill="0" layer="-1.00" shape="227.70,2253.11 222.67,2378.27"/>
    <poly id="214718369" type="unknown" color="51,128,255" fill="0" layer="-1.00" shape="653.74,1545.27 517.33,1541.01 419.73,1537.97 317.98,1534.80 212.13,1531.26 210.51,1573.00"/>
    <poly id="214718372" type="unknown" color="51,128,255" fill="0" layer="-1.00" shape="50.77,1828.23 159.80,1832.33 213.68,1834.39 269.41,1836.50 305.88,1837.87 409.14,1841.78 505.24,1845.41 644.44,1850.62"/>
    <poly id="214718403" type="unknown" color="51,128,255" fill="0" layer="-1.00" shape="528.25,2268.49 394.24,2261.76 227.70,2253.11 141.72,2249.95"/>
    <poly id="214718404" type="unknown" color="51,128,255" fill="0" layer="-1.00" shape="213.68,1834.39 216.80,1755.51 218.00,1725.38"/>
    <poly id="214718406" type="unknown" color="51,128,255" fill="0" layer="-1.00" shape="647.80,1740.15 509.61,1735.40 412.96,1732.08 310.24,1728.56 273.07,1727.28 218.00,1725.38 163.17,1723.51 65.22,1720.14"/>
    <poly id="214718407" type="unknown" color="51,128,255" fill="0" layer="-1.00" shape="97.42,1570.04 167.86,1571.88 210.51,1573.00 316.34,1575.77"/>
    <poly id="214718429" type="unknown" color="51,128,255" fill="0" layer="-1.00" shape="249.32,1170.19 242.51,1189.11 226.66,1215.11 199.85,1248.96 189.06,1273.02 183.41,1293.12 170.75,1348.99 171.63,1376.27 172.50,1421.99"/>
    <poly id="214718457" type="unknown" color="51,128,255" fill="0" layer="-1.00" shape="423.45,1430.93 419.73,1537.97"/>
    <poly id="214718475" type="unknown" color="51,128,255" fill="0" layer="-1.00" shape="1350.91,2237.33 1358.25,2237.70 1366.30,2238.11 1411.38,2250.86 1448.82,2271.37 1531.24,2322.31 1603.63,2364.54 1670.82,2407.73 1734.99,2448.49"/>
    <poly id="214718490" type="unknown" color="51,128,255" fill="0" layer="-1.00" shape="412.96,1732.08 409.14,1841.78 406.47,1918.30 404.54,1973.94 403.60,2000.74 399.09,2130.74 394.24,2261.76 392.34,2308.79 389.27,2388.38"/>
    <poly id="214765646" type="unknown" color="51,128,255" fill="0" layer="-1.00" shape="705.08,1929.22 709.82,1738.96 713.12,1606.43"/>
    <poly id="214765647" type="unknown" color="51,128,255" fill="0" layer="-1.00" shape="609.60,987.34 609.81,1013.61 610.71,1045.71 617.41,1060.86 629.66,1074.23 647.48,1078.87 666.81,1085.55 670.99,1092.93 674.69,1099.42 673.03,1139.92 673.43,1164.22 672.35,1185.80"/>
    <poly id="214765654" type="unknown" color="51,128,255" fill="0" layer="-1.00" shape="890.76,1172.67 892.40,1119.57 870.15,1095.46 847.46,1086.04 713.33,1030.39 609.60,987.34 472.09,930.29"/>
    <poly id="214765659" type="unknown" color="51,128,255" fill="0" layer="-1.00" shape="1326.97,2383.11 1318.67,2378.65 1311.36,2373.14 1279.29,2357.55 1256.75,2343.37 1244.27,2326.76 1239.83,2297.98 1240.25,2225.60 1241.49,2013.30 1241.69,1977.91 1242.01,1924.30 1242.92,1767.42 1243.48,1673.24 1265.26,1635.88 1269.95,1627.83 1336.08,1514.38 1337.75,1464.04 1337.98,1456.90 1345.39,1232.64 1347.05,1205.10"/>
    <poly id="214765661" type="unknown" color="51,128,255" fill="0" layer="-1.00" shape="871.25,2189.80 877.23,2192.87 899.03,2195.07 921.90,2200.04 927.68,2201.59 930.21,2205.26 928.11,2216.63 926.56,2247.95 931.09,2260.03 935.63,2267.38 948.36,2276.66 992.66,2304.97 1042.96,2338.67 1112.43,2381.83 1161.19,2412.85 1183.32,2416.80 1240.48,2422.32 1248.61,2417.30 1259.11,2402.12 1275.08,2374.28"/>
    <poly id="214765677" type="unknown" color="51,128,255" fill="0" layer="-1.00" shape="1320.68,2394.69 1312.38,2390.22 1303.73,2386.50 1275.08,2374.28 1263.87,2369.50 1241.98,2354.00 1225.51,2328.54 1221.58,2298.68 1222.00,2208.93 1222.90,2013.28 1223.07,1977.89 1223.77,1827.46 1224.51,1670.01 1250.03,1626.09 1254.65,1618.19 1318.21,1509.20 1319.36,1463.80 1319.54,1456.59 1325.22,1231.89 1323.37,1217.76"/>
    <poly id="214765683" type="unknown" color="51,128,255" fill="0" layer="-1.00" shape="1183.52,1462.10 1196.73,1462.26 1319.36,1463.80 1337.75,1464.04 1421.16,1465.08"/>
    <poly id="214765686" type="unknown" color="51,128,255" fill="0" layer="-1.00" shape="995.23,1939.82 985.20,1939.46 864.30,1935.03 803.97,1932.83 705.08,1929.22 642.11,1926.91 502.23,1921.81 406.47,1918.30"/>
    <poly id="214765692" type="unknown" color="51,128,255" fill="0" layer="-1.00" shape="461.48,1178.23 456.70,1367.60 455.50,1414.78 455.06,1432.06"/>
    <poly id="214765700" type="unknown" color="51,128,255" fill="0" layer="-1.00" shape="1042.96,2338.67 1029.50,2343.13 998.26,2342.78 940.63,2337.51 896.37,2335.56 831.75,2333.16 813.84,2332.32"/>
    <poly id="214765708" type="unknown" color="51,128,255" fill="0" layer="-1.00" shape="1317.18,2248.16 1295.46,2245.97 1272.63,2243.70 1260.72,2241.36 1249.74,2232.65 1240.25,2225.60"/>
    <poly id="214766033" type="unknown" color="51,128,255" fill="0" layer="-1.00" shape="1303.73,2386.50 1311.36,2373.14 1316.15,2310.11 1317.18,2248.16 1318.10,2197.33 1320.09,2110.70 1318.88,2026.08 1319.87,1923.93 1320.02,1907.88 1321.74,1840.26 1323.39,1766.80 1323.88,1744.74 1324.61,1699.33 1327.83,1692.40 1332.67,1685.11 1345.33,1666.27 1379.25,1618.36 1399.32,1586.53 1413.11,1558.18 1418.50,1546.24 1418.76,1537.67 1421.16,1465.08 1420.67,1458.30 1418.08,1422.62 1416.39,1403.77 1414.80,1380.78 1415.03,1369.62 1419.05,1352.47 1427.27,1333.88 1442.87,1317.30 1476.25,1289.35 1519.50,1254.98 1545.34,1234.96 1547.70,1226.33 1583.13,1199.94 1594.51,1193.07 1606.92,1185.57 1639.70,1168.49 1694.23,1144.75 1730.38,1130.68 1742.95,1124.06 1759.94,1106.08 1774.08,1083.93 1782.33,1068.14 1783.80,1043.00 1782.19,1024.52 1776.81,1014.11 1765.06,999.59 1748.84,993.49 1724.16,984.00 1718.65,981.31 1701.21,972.75 1666.36,964.76 1643.84,960.13 1628.34,955.07 1614.56,947.90 1598.26,933.32 1579.59,913.17 1523.80,826.23 1509.74,806.03 1469.13,747.43 1450.36,718.11 1436.37,695.69 1418.15,668.96 1404.38,649.05 1384.91,625.56 1370.55,616.05 1351.82,601.85"/>
    <poly id="222233789" type="power" color="26,26,77" fill="0" layer="5.00" shape="410.08,876.67 684.27,987.20 962.71,1098.04 1149.48,1168.85 1401.19,1265.31 1423.40,1284.20 1461.29,1409.02 1469.72,1555.19 1374.68,1769.53 1364.43,1917.79 1367.41,2121.39 1345.38,2387.42 1185.69,2651.59 1024.66,2918.93 876.31,3163.78 745.24,3381.65 583.69,3648.99 408.58,3943.37 290.66,4141.44 280.79,4450.84 273.65,4714.61 268.27,4984.68 260.72,5287.01"/>
    <poly id="222233790" type="power" color="26,26,77" fill="0" layer="5.00" shape="1723.44,-11.38 1690.17,52.47 1632.01,226.13 1478.80,665.77 1452.68,745.85 1593.65,955.77 1632.68,1100.44 1493.41,1251.01 1413.12,1322.65 1434.04,1433.92 1429.47,1564.67 1345.78,1735.88 1339.40,1931.85 1344.34,2170.41 1291.44,2390.32 1252.09,2457.54 1166.02,2605.66 1040.39,2817.75 924.15,3013.64 780.24,3257.28 591.27,3566.63 424.73,3849.85 250.29,4143.34 224.38,4522.93 202.03,4769.99 164.73,5154.58 118.86,5568.51 -174.11,5716.37 -385.82,5825.68 -647.79,5953.30 -759.19,5891.31 -884.32,5958.05"/>
    <poly id="235953917" type="unknown" color="51,128,255" fill="0" layer="-1.00" shape="640.46,1981.45 500.02,1976.98 404.54,1973.94 300.59,1970.63 155.65,1966.02 85.10,1963.78 64.16,1957.86 47.49,1932.39 46.98,1928.40 47.15,1921.21 47.97,1887.47 50.77,1828.23 65.22,1720.14 97.42,1570.04 125.51,1474.40 140.69,1455.47 145.89,1432.72 141.34,1420.89"/>
    <poly id="235986734" type="forest" color="140,196,107" fill="1" layer="-11.00" shape="3388.54,2936.01 3365.77,2902.13 3356.12,2847.25 3377.16,2811.10 3363.94,2739.43 3387.40,2616.85 3400.47,2373.19 3408.03,2242.92 3378.74,1845.99 3357.72,1784.50 3269.00,1626.13 3259.47,1581.36 3232.84,1221.40 3269.57,772.07 3228.36,320.24 3212.87,247.47 3084.09,-58.61 3031.87,-67.65 2851.03,-83.57 2771.55,-53.87 2740.70,153.69 2859.66,175.50 2785.17,402.60 2881.63,800.12 2867.59,851.07 2836.07,881.28 2795.97,894.17 2686.43,855.41 2630.45,808.03 2485.45,638.99 2369.46,663.40 2273.62,729.39 2203.98,739.95 2072.90,695.21 1937.35,595.61 1871.54,412.28 1899.02,305.40 1846.42,103.52 1712.70,83.19 1637.41,96.13 1461.90,248.33 1448.06,330.93 1499.32,342.77 1543.50,530.86 1504.82,627.30 1493.24,707.61 1623.63,891.84 1762.81,923.49 1833.58,981.41 1846.03,1047.41 1828.77,1115.52 1761.78,1175.00 1604.68,1232.59 1476.76,1358.28 1466.84,1393.31 1469.31,1567.43 1390.34,1709.00 1378.29,1787.60 1373.21,1873.93 1378.70,2039.58 1901.01,2490.43 1339.86,2784.08 1310.60,2990.89 1455.48,3105.97 1499.18,3293.98 1344.01,3547.11 1189.83,3440.43 693.04,4325.14 579.18,4117.45 302.10,4129.04 216.56,3952.72 195.60,3896.85 148.43,3917.58 121.05,4090.70 231.25,4646.02 333.91,4739.10 314.29,4799.92 259.93,4784.83 213.02,5222.98 233.63,5447.14 298.20,5565.35 380.43,5649.68 444.94,5763.39 453.24,5882.36 456.87,5911.57 438.74,6010.31 394.81,6080.23 304.20,6109.45 272.80,6170.26 184.04,6181.79 110.67,6144.21 62.01,6232.27 58.42,6313.11 9.48,6376.50 -55.03,6460.26 -18.44,6500.24 73.91,6483.47 170.46,6437.49 223.58,6344.87 320.41,6323.57 451.55,6342.27 564.59,6356.69 650.73,6387.12 629.13,6472.64 688.99,6575.17 633.08,6620.69 399.33,6513.40 319.26,6617.54 272.06,6833.50 368.83,7005.18 292.64,7053.17 271.68,7194.78 259.78,7338.51 299.17,7427.82 332.11,7544.12 292.36,7620.87 336.19,7703.38 431.78,7771.85 440.89,7975.94 444.62,8106.03 416.01,8169.19 355.12,8174.37 335.27,8214.99 333.23,8268.81 374.94,8269.60 474.32,8249.93 526.93,8197.08 597.63,8063.89 619.54,8014.27 657.20,8016.38 658.58,8063.19 664.29,8168.59 653.32,8310.22 613.27,8316.18 612.41,8368.88 629.25,8459.47 652.85,8550.15 692.00,8662.79 694.69,8743.27 720.77,8861.87 716.10,8879.27 643.43,8912.05 647.22,8941.30 667.73,8965.51 723.51,8992.03 762.80,9085.14 763.72,9165.90 678.07,9242.81 611.51,9279.24 633.20,9317.21 603.21,9408.33 562.94,9418.31 523.77,9500.70 525.28,9541.59 554.49,9628.61 586.21,9710.50 557.34,9764.73 586.04,9814.09 726.55,9864.08 825.85,9862.94 924.63,9816.94 1018.39,9726.13 1094.66,9684.87 1138.39,9758.42 1144.20,9872.77 1226.27,9943.62 1289.52,10147.06 1359.85,10162.67 1366.46,10164.13 1487.63,10102.18 1623.98,9986.21 1569.62,9912.00 1572.54,9829.75 1629.97,9719.16 1714.80,9437.75 1816.00,9405.19 1955.54,9369.95 2041.68,9402.63 2100.51,9415.42 2115.74,9358.77 2117.49,9327.18 2104.07,9290.85 2073.42,9252.19 2051.89,9207.92 2037.77,9109.56 2008.53,8995.68 1983.90,8952.92 1958.40,8904.01 1858.68,8724.51 1814.75,8640.48 1793.31,8593.04 1739.08,8552.80 1685.09,8427.99 1707.07,8390.58 1711.44,8347.55 1723.41,8304.84 1742.18,8272.98 1742.61,8246.93 1707.13,8174.95 1690.11,8060.42 1661.17,7896.95 1695.41,7732.77 1736.28,7555.04 1722.67,7493.61 1650.95,7322.73 1596.81,7192.94 1519.39,6942.70 1477.75,6821.08 1449.13,6719.11 1446.10,6651.82 1491.71,6494.22 1550.78,6348.00 1586.78,6318.12 1674.49,6266.26 1743.95,6277.75 1808.23,6313.22 1850.94,6327.65 1913.65,6318.23 1954.19,6292.25 1976.20,6261.68 1984.15,6209.76 1941.24,6086.83 1863.44,5835.57 1858.82,5670.46 1857.96,5519.12 1830.25,5491.80 1767.95,5373.57 1795.82,5243.09 1856.15,5188.56 1981.14,5261.19 2102.17,5183.52 2159.67,5077.40 2175.67,4895.45 2298.69,4793.06 2481.17,4759.59 2683.90,4719.14 2788.40,4576.58 2809.02,4403.54 2787.52,4298.32 2824.18,4145.29 2972.73,4105.47 3119.94,4146.44 3200.91,4118.61 3278.60,4001.04 3312.75,3825.60 3276.85,3644.22 3209.51,3478.90 3212.00,3299.32 3282.05,3103.29 3388.54,2936.01"/>
    <poly id="30598603" type="unknown" color="51,128,255" fill="0" layer="-1.00" shape="220.68,4741.89 223.44,4711.70 223.49,4691.08 219.55,4655.22 183.29,4482.26 160.41,4358.11 130.36,4228.01 105.72,4122.40 99.59,4097.36 92.34,4059.35 90.81,4034.02 90.68,4016.32 91.96,3997.79 94.64,3973.20 97.65,3959.15 100.40,3946.36 104.39,3931.57 111.30,3912.77 119.49,3894.86 126.93,3879.15 140.57,3856.47 150.66,3841.76 168.31,3819.62 180.44,3806.71 198.94,3789.53 213.91,3777.79 227.91,3768.44 244.88,3759.55 269.15,3747.98 336.27,3717.75 387.41,3694.97 393.51,3692.20 430.61,3675.34 539.95,3624.68 587.65,3600.01 601.50,3588.63 613.48,3575.86 633.58,3543.24 674.67,3471.79 736.99,3367.70 787.03,3289.15 864.29,3160.22 869.34,3151.79 933.42,3044.88 1028.98,2886.20 1152.38,2680.12 1185.62,2625.61 1207.15,2588.59 1235.73,2539.46 1274.63,2473.38 1304.55,2423.51 1320.68,2394.69 1326.97,2383.11 1342.50,2345.29 1345.14,2337.58 1347.32,2328.10 1348.94,2321.06 1350.38,2312.10 1358.25,2237.70 1360.64,2218.35 1363.96,2180.52 1365.22,2161.14 1364.18,2137.72 1361.14,2113.00 1359.82,2089.17 1360.42,2073.58 1361.57,2057.37 1364.83,2034.12 1366.66,2007.34 1366.17,1983.96 1362.01,1940.10 1359.73,1907.29 1358.51,1881.36 1358.83,1871.18 1360.76,1842.82 1367.01,1771.49 1370.76,1741.43 1373.94,1723.58 1378.15,1709.42 1382.11,1697.81 1387.70,1686.24 1397.17,1668.95 1414.21,1640.21 1435.06,1606.09 1444.86,1586.84 1450.77,1573.29 1457.46,1551.54 1460.49,1503.30 1459.49,1483.28 1458.11,1454.26 1454.34,1414.95 1453.37,1397.43 1454.68,1383.38 1457.69,1368.34 1462.90,1354.39 1470.44,1340.77 1480.04,1329.09 1516.40,1293.25 1551.44,1259.60 1571.40,1239.60 1589.00,1224.81 1601.19,1216.26 1611.58,1211.08 1633.63,1201.85 1673.97,1187.93 1731.73,1166.31 1753.71,1156.73 1770.04,1147.01 1784.66,1135.13 1797.90,1120.03 1806.85,1106.60 1816.36,1087.00 1822.39,1071.22 1825.30,1053.92 1825.94,1035.40 1822.21,1017.91 1815.36,998.35 1805.44,982.47 1797.28,972.74 1785.17,962.77 1769.97,954.11 1752.96,946.86 1722.26,940.62 1685.22,935.15 1661.88,930.37 1647.43,926.03 1634.79,918.46 1623.24,907.09 1612.09,894.59 1603.91,883.46 1576.53,845.20 1513.70,756.12 1482.30,712.84 1452.05,671.66 1424.52,633.12 1401.15,601.39 1390.12,587.20 1382.04,571.73 1376.53,558.04 1372.26,542.80 1371.51,522.58 1447.66,53.60 1446.14,28.16 1443.33,-0.00"/>
    <poly id="320374710" type="building" color="255,230,230" fill="1" layer="2.00" shape="1025.11,1331.98 1026.39,1296.26 1063.94,1297.58 1062.65,1333.31 1025.11,1331.98"/>
    <poly id="320374798" type="building" color="255,230,230" fill="1" layer="2.00" shape="996.24,1284.65 997.27,1239.52 1047.23,1240.65 1046.99,1251.09 1053.38,1251.23 1052.54,1285.95 996.24,1284.65"/>
    <poly id="320374853" type="building" color="255,230,230" fill="1" layer="2.00" shape="1053.03,1287.15 1054.32,1234.70 1110.29,1236.04 1109.01,1288.49 1053.03,1287.15"/>
    <poly id="320375525" type="unknown" color="51,128,255" fill="0" layer="-1.00" shape="870.88,1258.54 879.81,1259.19 907.47,1258.87 924.37,1255.88 939.52,1246.73 951.82,1237.05 974.31,1208.75"/>
    <poly id="320375526" type="unknown" color="51,128,255" fill="0" layer="-1.00" shape="879.73,1193.25 878.09,1202.64 873.49,1230.26 872.92,1253.50 870.88,1258.54 868.61,1264.17 863.42,1270.86 857.37,1272.82 837.47,1273.04 818.86,1274.52 810.88,1280.64 804.80,1291.51 799.71,1315.41 792.43,1320.97 781.15,1321.80 748.94,1318.10 703.07,1318.20 684.49,1322.48 675.26,1333.02 672.61,1346.65 669.70,1374.08"/>
    <poly id="320375528" type="unknown" color="51,128,255" fill="0" layer="-1.00" shape="1195.41,1184.52 1195.51,1204.05 1195.93,1295.20 1196.20,1349.91 1196.69,1454.50 1196.73,1462.26 1197.22,1565.06 1197.27,1574.95 1244.56,1611.83 1254.65,1618.19 1269.95,1627.83"/>
    <poly id="320377086" type="unknown" color="51,128,255" fill="0" layer="-1.00" shape="273.07,1727.28 272.07,1757.03 269.41,1836.50"/>
    <poly id="320377087" type="unknown" color="51,128,255" fill="0" layer="-1.00" shape="216.80,1755.51 272.07,1757.03"/>
    <poly id="353358068" type="building" color="255,230,230" fill="1" layer="2.00" shape="1218.31,1302.41 1249.62,1303.20 1249.44,1310.25 1271.14,1310.80 1272.04,1276.13 1279.66,1276.32 1280.22,1254.88 1249.99,1254.11 1250.17,1247.08 1225.42,1246.45 1224.56,1279.78 1218.90,1279.64 1218.31,1302.41"/>
    <poly id="353358069" type="building" color="255,230,230" fill="1" layer="2.00" shape="1221.80,1419.56 1252.95,1418.46 1253.16,1424.40 1275.46,1423.61 1274.32,1391.85 1283.72,1391.51 1282.87,1367.84 1253.61,1368.88 1253.37,1362.42 1228.86,1363.28 1229.54,1382.32 1226.35,1382.43 1226.72,1392.72 1220.85,1392.93 1221.80,1419.56"/>
    <poly id="353358133" type="building" color="255,230,230" fill="1" layer="2.00" shape="1364.76,2330.68 1427.61,2341.24 1434.66,2299.85 1371.79,2289.29 1364.76,2330.68"/>
    <poly id="353358135" type="building" color="255,230,230" fill="1" layer="2.00" shape="1298.50,1645.69 1331.19,1664.43 1356.46,1620.90 1323.77,1602.15 1298.50,1645.69"/>
    <poly id="353358151" type="building" color="255,230,230" fill="1" layer="2.00" shape="1355.02,1555.92 1370.57,1564.48 1386.85,1535.28 1371.29,1526.71 1355.02,1555.92"/>
    <poly id="353358152" type="building" color="255,230,230" fill="1" layer="2.00" shape="1362.56,1446.03 1391.31,1445.83 1390.61,1348.45 1361.86,1348.65 1362.56,1446.03"/>
    <poly id="353358169" type="building" color="255,230,230" fill="1" layer="2.00" shape="1290.87,1862.73 1288.89,1789.63 1274.26,1790.02 1276.23,1863.13 1290.87,1862.73"/>
    <poly id="353358180" type="building" color="255,230,230" fill="1" layer="2.00" shape="1345.31,2438.94 1396.19,2468.40 1422.98,2422.69 1372.11,2393.23 1345.31,2438.94"/>
    <poly id="353358216" type="building" color="255,230,230" fill="1" layer="2.00" shape="1271.32,1749.32 1315.68,1748.53 1314.66,1691.56 1270.31,1692.34 1271.32,1749.32"/>
    <poly id="353358235" type="building" color="255,230,230" fill="1" layer="2.00" shape="1333.92,1592.45 1369.10,1615.10 1377.91,1601.58 1342.73,1578.93 1333.92,1592.45"/>
    <poly id="353358236" type="building" color="255,230,230" fill="1" layer="2.00" shape="1155.92,1882.14 1166.68,1897.15 1195.65,1876.62 1184.88,1861.61 1155.92,1882.14"/>
    <poly id="360136115" type="building" color="255,230,230" fill="1" layer="2.00" shape="1110.51,1281.18 1111.94,1250.18 1162.01,1252.45 1160.35,1288.65 1125.38,1287.07 1125.62,1281.86 1110.51,1281.18"/>
    <poly id="360136119" type="building" color="255,230,230" fill="1" layer="2.00" shape="1030.63,1810.32 1026.36,1810.40 1026.73,1831.97 1025.24,1831.89 1027.35,1854.07 1032.77,1872.15 1033.35,1900.78 1050.55,1896.01 1076.61,1895.34 1075.55,1834.65 1078.70,1834.45 1103.43,1862.83 1114.17,1890.48 1148.93,1867.87 1123.40,1814.32 1126.09,1812.21 1146.95,1828.39 1164.08,1852.63 1198.28,1825.65 1146.60,1761.59 1146.25,1751.67 1184.02,1778.90 1206.49,1745.56 1153.23,1710.10 1147.93,1703.24 1160.58,1686.96 1156.61,1685.74 1142.53,1688.15 1127.19,1691.27 1113.70,1696.76 1115.43,1699.82 1113.88,1700.97 1121.02,1707.76 1117.22,1708.36 1125.29,1723.28 1127.61,1741.21 1126.53,1758.62 1118.03,1779.47 1105.08,1794.63 1094.01,1802.61 1083.47,1808.09 1068.44,1812.59 1054.81,1814.17 1054.74,1810.37 1055.70,1805.41 1054.67,1800.46 1051.82,1796.29 1047.57,1793.51 1042.58,1792.56 1037.60,1793.59 1033.40,1796.43 1030.61,1800.65 1029.65,1805.61 1030.63,1810.32"/>
    <poly id="360136537" type="unknown" color="51,128,255" fill="0" layer="-1.00" shape="1197.22,1565.06 1184.14,1564.58 1053.63,1559.83 1043.34,1559.45 966.36,1556.66 849.44,1552.39 653.74,1545.27"/>
    <poly id="360136539" type="unknown" color="51,128,255" fill="0" layer="-1.00" shape="653.40,1556.22 966.12,1567.04 1043.33,1569.69 1053.63,1569.98 1184.20,1574.27"/>
    <poly id="363285439" type="landuse" color="194,194,130" fill="1" layer="-4.00" shape="1201.20,1382.34 1199.99,1383.07 1198.56,1384.62 1197.93,1385.71 1197.51,1386.89 1197.38,1388.30 1197.73,1389.66 1197.98,1390.99 1199.05,1392.52 1200.19,1393.47 1202.06,1393.93 1203.28,1393.51 1204.56,1392.37 1205.35,1390.43 1205.53,1388.65 1205.53,1387.37 1205.15,1386.16 1204.31,1384.08 1202.67,1382.80 1201.20,1382.34"/>
    <poly id="363285440" type="landuse" color="194,194,130" fill="1" layer="-4.00" shape="1299.01,1388.67 1299.09,1380.16 1301.03,1379.11 1302.05,1378.08 1302.86,1375.48 1310.21,1374.94 1309.99,1388.46 1299.01,1388.67"/>
    <poly id="363285441" type="landuse" color="194,194,130" fill="1" layer="-4.00" shape="1312.96,1370.65 1303.93,1371.59 1302.80,1370.39 1301.20,1369.03 1298.77,1367.57 1298.77,1359.61 1312.91,1359.17 1312.96,1370.65"/>
    <poly id="363285442" type="landuse" color="194,194,130" fill="1" layer="-4.00" shape="1283.43,1369.69 1283.03,1359.51 1295.31,1359.01 1295.79,1367.42 1294.68,1368.91 1293.12,1370.23 1291.83,1372.09 1283.43,1369.69"/>
    <poly id="363285443" type="landuse" color="194,194,130" fill="1" layer="-4.00" shape="1297.55,1371.48 1296.69,1371.48 1295.88,1371.77 1295.21,1372.32 1294.79,1373.06 1294.64,1373.91 1294.79,1374.75 1295.22,1375.48 1295.80,1376.00 1296.51,1376.30 1297.29,1376.37 1298.04,1376.19 1298.70,1375.80 1299.21,1375.22 1299.52,1374.50 1299.58,1373.74 1299.41,1372.99 1299.01,1372.32 1298.35,1371.77 1297.55,1371.48"/>
    <poly id="363285444" type="landuse" color="194,194,130" fill="1" layer="-4.00" shape="1308.60,1401.07 1293.20,1401.89 1290.46,1405.53 1291.12,1425.09 1293.28,1427.19 1308.45,1426.37 1308.75,1414.47 1308.60,1401.07"/>
    <poly id="363285445" type="landuse" color="194,194,130" fill="1" layer="-4.00" shape="1218.25,1397.47 1212.24,1397.05 1211.14,1399.64 1209.21,1401.44 1207.12,1403.23 1204.71,1404.71 1202.93,1405.86 1201.81,1406.83 1201.37,1439.88 1204.47,1440.81 1206.26,1441.91 1206.00,1446.76 1253.35,1448.63 1306.23,1451.25 1308.16,1449.95 1308.99,1437.85 1307.84,1435.60 1249.85,1431.95 1218.29,1430.02 1218.25,1397.47"/>
    <poly id="363285446" type="landuse" color="194,194,130" fill="1" layer="-4.00" shape="967.58,1267.92 967.76,1234.53 967.30,1231.45 965.33,1231.61 963.36,1231.63 960.99,1234.61 949.56,1247.22 941.01,1252.23 940.04,1254.06 940.35,1255.89 963.08,1269.37 965.06,1270.48 966.90,1269.75 967.58,1267.92"/>
    <poly id="363285447" type="landuse" color="194,194,130" fill="1" layer="-4.00" shape="890.51,1203.09 886.06,1204.26 883.86,1207.98 882.43,1212.81 881.74,1250.58 894.07,1253.40 906.71,1252.15 918.22,1249.05 926.01,1246.75 932.31,1242.97 940.08,1239.18 946.70,1232.07 953.31,1223.48 956.97,1217.89 958.39,1211.57 959.42,1203.79 890.51,1203.09"/>
    <poly id="363285448" type="tourism" color="207,245,201" fill="1" layer="-10.00" shape="472.27,1234.96 530.70,1236.45 531.84,1191.97 473.41,1190.49 472.27,1234.96"/>
    <poly id="363717067" type="tourism" color="207,245,201" fill="1" layer="-10.00" shape="165.68,1822.41 195.16,1823.54 197.89,1753.26 214.88,1753.90 215.79,1730.44 169.32,1728.67 165.68,1822.41"/>
    <poly id="363717075" type="landuse" color="194,194,130" fill="1" layer="-4.00" shape="184.18,1301.93 184.05,1304.03 184.54,1305.32 186.17,1305.94 191.00,1303.15 195.66,1299.39 199.04,1296.45 202.38,1290.93 204.12,1287.37 206.00,1281.87 206.75,1277.02 207.01,1271.38 206.81,1267.03 206.44,1263.49 205.62,1260.01 203.64,1258.10 201.32,1257.94 199.26,1259.22 184.18,1301.93"/>
    <poly id="363717078" type="landuse" color="194,194,130" fill="1" layer="-4.00" shape="157.02,1405.71 144.85,1402.48 152.41,1372.09 140.21,1366.90 179.28,1179.87 217.70,1182.52 213.45,1205.86 211.60,1216.26 208.62,1227.52 204.48,1235.70 197.84,1247.84 188.47,1267.87 157.02,1405.71"/>
    <poly id="370530108" type="unknown" color="51,128,255" fill="0" layer="-1.00" shape="138.13,2373.13 222.67,2378.27 389.27,2388.38 524.47,2396.58"/>
    <poly id="370531454" type="unknown" color="51,128,255" fill="0" layer="-1.00" shape="187.29,1166.39 190.97,1144.44"/>
    <poly id="370531534" type="unknown" color="51,128,255" fill="0" layer="-1.00" shape="849.44,1552.39 853.12,1446.25"/>
    <poly id="404927548" type="building" color="255,230,230" fill="1" layer="2.00" shape="395.30,1289.11 370.70,1304.27 394.97,1305.31 393.45,1344.60 358.98,1343.17 358.33,1358.13 395.59,1359.73 393.21,1398.47 357.97,1397.24 357.59,1407.59 345.44,1407.18 345.81,1396.81 312.47,1395.65 312.09,1406.14 300.82,1405.74 301.18,1395.26 211.37,1392.13 227.06,1377.32 212.34,1377.32 203.43,1383.46 197.40,1386.47 193.02,1398.44 181.46,1393.74 185.29,1382.89 180.11,1373.69 177.89,1353.23 178.20,1330.50 179.26,1324.60 200.87,1312.57 212.55,1297.84 219.72,1282.61 221.70,1259.02 216.75,1245.33 212.14,1236.97 225.75,1218.58 247.29,1200.50 260.08,1196.44 263.23,1187.85 275.27,1192.40 274.86,1193.47 335.06,1196.22 335.31,1186.84 347.16,1187.14 346.91,1196.52 378.25,1197.35 378.53,1187.26 392.05,1187.62 391.79,1197.71 425.94,1198.61 424.10,1236.23 388.90,1235.00 388.17,1252.05 424.87,1253.62 423.02,1290.11 395.30,1289.11"/>
    <poly id="404927551" type="building" color="255,230,230" fill="1" layer="2.00" shape="549.01,1240.36 593.62,1241.89 566.77,1257.36 503.15,1254.98 501.72,1292.58 567.36,1295.02 540.27,1311.17 485.08,1308.91 483.51,1346.83 539.03,1349.11 538.62,1358.93 549.05,1359.35 549.47,1349.53 592.68,1351.31 592.30,1360.39 602.19,1360.80 602.57,1351.71 648.70,1353.60 650.27,1315.70 615.72,1314.27 640.00,1297.73 719.75,1300.71 719.31,1312.08 729.43,1312.46 729.85,1301.08 783.69,1303.10 785.12,1265.50 740.74,1263.75 764.81,1247.79 855.92,1250.92 857.20,1214.56 760.19,1211.23 760.57,1200.37 749.82,1200.01 749.44,1210.85 662.18,1207.85 662.48,1199.22 651.48,1198.83 651.18,1207.47 607.40,1205.96 607.78,1195.23 596.80,1194.86 596.42,1205.58 550.28,1203.99 549.01,1240.36"/>
    <poly id="404927553" type="building" color="255,230,230" fill="1" layer="2.00" shape="301.63,1340.83 254.22,1338.89 259.78,1325.31 249.34,1324.36 244.94,1334.58 224.69,1365.82 217.41,1372.76 231.16,1373.45 245.64,1353.30 300.98,1355.67 301.63,1340.83"/>
    <poly id="404927554" type="building" color="255,230,230" fill="1" layer="2.00" shape="268.13,1270.61 261.99,1295.11 251.25,1319.95 261.69,1320.66 270.16,1299.99 304.09,1301.43 330.68,1286.78 275.35,1284.78 279.34,1270.96 268.13,1270.61"/>
    <poly id="404927556" type="building" color="255,230,230" fill="1" layer="2.00" shape="269.09,1266.68 281.07,1267.04 283.95,1247.65 332.58,1249.71 333.29,1233.04 285.18,1231.36 285.23,1217.01 272.67,1216.97 273.79,1222.45 274.77,1240.81 269.09,1266.68"/>
    <poly id="404928053" type="building" color="255,230,230" fill="1" layer="2.00" shape="1049.26,1435.98 1050.38,1417.54 997.38,1414.35 999.63,1377.49 1162.84,1387.30 1160.22,1430.17 1117.64,1427.61 1118.16,1419.07 1105.59,1418.31 1104.30,1439.30 1049.26,1435.98"/>
    <poly id="412663086" type="unknown" color="51,128,255" fill="0" layer="-1.00" shape="1025.57,1752.72 1031.55,1759.23 1043.29,1772.01 1052.12,1779.49 1062.07,1785.54 1078.44,1785.36 1088.56,1781.18 1106.34,1768.91 1114.02,1749.32 1106.44,1703.67 1085.81,1676.69 1061.45,1657.33 1053.66,1655.22 1043.19,1655.17"/>
    <poly id="412663094" type="unknown" color="51,128,255" fill="0" layer="-1.00" shape="1241.69,1977.91 1223.07,1977.89 995.17,1977.68 985.11,1977.67 719.75,1977.42 640.46,1981.45"/>
    <poly id="412663105" type="unknown" color="51,128,255" fill="0" layer="-1.00" shape="1043.34,1559.45 1043.33,1569.69 1043.19,1655.17 1043.09,1732.02 1025.57,1752.72 985.58,1800.00 985.30,1906.06 985.20,1939.46 985.11,1977.67 984.99,2012.95"/>
    <poly id="412663107" type="unknown" color="51,128,255" fill="0" layer="-1.00" shape="803.97,1932.83 803.59,1901.83 798.25,1879.59"/>
    <poly id="412663138" type="unknown" color="51,128,255" fill="0" layer="-1.00" shape="709.82,1738.96 841.82,1740.65 843.90,1605.94"/>
    <poly id="413311415" type="unknown" color="51,128,255" fill="0" layer="-1.00" shape="1242.92,1767.42 1323.39,1766.80"/>
    <poly id="413311431" type="unknown" color="51,128,255" fill="0" layer="-1.00" shape="1311.37,1923.97 1312.80,1875.63"/>
    <poly id="413311436" type="unknown" color="51,128,255" fill="0" layer="-1.00" shape="1271.01,1924.16 1271.16,1874.99 1312.80,1875.63"/>
    <poly id="413311453" type="unknown" color="51,128,255" fill="0" layer="-1.00" shape="1242.01,1924.30 1271.01,1924.16 1311.37,1923.97 1319.87,1923.93"/>