<!-- filename: hello.rou.xml -->
    <routes>
        <vType accel="1.0" decel="5.0" type="bicycle" id="bus" length="10.0" maxSpeed="1" sigma="0.0" />
    </routes>
