<configuration>
  <input>
      <net-file value="ril.net.xml"/>
      <route-files value="simulation.rou.xml"/>
      <gui-settings-file value="simulation.settings.xml"/>
      <additional-files value="ril.poly.xml"/>
  </input>
  <time>
      <begin value="0"/>
      <step-length value="0.005" />
  </time>
  <processing>
    <collision.action value = "none"/>
  </processing>
  <report>
      <no-duration-log value="true"/>
      <no-step-log value="true"/>
  </report>
</configuration>
